                              1 ;CARILLON PLAYER & MUSIC
                              2 
                              3 .area	_CODE_4
   0000 C3 56 40 C3 88 40     4 .DB 0xC3,0x56,0x40,0xC3,0x88,0x40,0xC3,0xE0,0x40,0xC3,0x0,0x41,0xC3,0xE8,0x40,0x43
        C3 E0 40 C3 00 41
        C3 E8 40 43
   0010 41 52 49 4C 4C 4F     5 .DB 0x41,0x52,0x49,0x4C,0x4C,0x4F,0x4E,0x20,0x50,0x4C,0x41,0x59,0x45,0x52,0x20,0x56
        4E 20 50 4C 41 59
        45 52 20 56
   0020 65 72 73 69 6F 6E     6 .DB 0x65,0x72,0x73,0x69,0x6F,0x6E,0x20,0x31,0x2E,0x30,0x20,0x28,0x63,0x29,0x32,0x30
        20 31 2E 30 20 28
        63 29 32 30
   0030 30 30 20 41 6C 65     7 .DB 0x30,0x30,0x20,0x41,0x6C,0x65,0x6B,0x73,0x69,0x20,0x45,0x65,0x62,0x65,0x6E,0x20
        6B 73 69 20 45 65
        62 65 6E 20
   0040 28 65 6D 61 69 6C     8 .DB 0x28,0x65,0x6D,0x61,0x69,0x6C,0x3A,0x61,0x6C,0x65,0x6B,0x73,0x69,0x40,0x63,0x6E
        3A 61 6C 65 6B 73
        69 40 63 6E
   0050 63 64 2E 66 69 29     9 .DB 0x63,0x64,0x2E,0x66,0x69,0x29,0x3E,0x80,0xE0,0x26,0xAF,0x21,0x10,0xFF,0xE,0xA
        3E 80 E0 26 AF 21
        10 FF 0E 0A
   0060 22 22 0D 20 FB 21    10 .DB 0x22,0x22,0xD,0x20,0xFB,0x21,0xC0,0xC7,0xE,0x18,0x22,0x22,0xD,0x20,0xFB,0x3E
        C0 C7 0E 18 22 22
        0D 20 FB 3E
   0070 77 E0 24 EA D4 C7    11 .DB 0x77,0xE0,0x24,0xEA,0xD4,0xC7,0x3E,0x1,0xEA,0xC6,0xC7,0xEA,0xCC,0xC7,0xEA,0xD2
        3E 01 EA C6 C7 EA
        CC C7 EA D2
   0080 C7 EA D9 C7 EA C0    12 .DB 0xC7,0xEA,0xD9,0xC7,0xEA,0xC0,0xC7,0xC9,0x21,0xC0,0xC7,0xAF,0x22,0x3E,0x7,0x22
        C7 C9 21 C0 C7 AF
        22 3E 07 22
   0090 3E 01 22 AF 22 2C    13 .DB 0x3E,0x1,0x22,0xAF,0x22,0x2C,0x2F,0x77,0x2E,0xC6,0xCB,0xC6,0xCB,0x4E,0x20,0x8
        2F 77 2E C6 CB C6
        CB 4E 20 08
   00A0 3E 08 E0 12 3E 80    14 .DB 0x3E,0x8,0xE0,0x12,0x3E,0x80,0xE0,0x14,0x2E,0xCC,0xCB,0xC6,0xCB,0x4E,0x20,0x8
        E0 14 2E CC CB C6
        CB 4E 20 08
   00B0 3E 08 E0 17 3E 80    15 .DB 0x3E,0x8,0xE0,0x17,0x3E,0x80,0xE0,0x19,0x2E,0xD2,0x7E,0xE6,0xFB,0xF6,0x1,0x77
        E0 19 2E D2 7E E6
        FB F6 01 77
   00C0 CB 4E 20 0B AF E0    16 .DB 0xCB,0x4E,0x20,0xB,0xAF,0xE0,0x1C,0x2E,0xE6,0x22,0x77,0x2F,0xEA,0xD4,0xC7,0x2E
        1C 2E E6 22 77 2F
        EA D4 C7 2E
   00D0 D9 CB C6 CB 4E 20    17 .DB 0xD9,0xCB,0xC6,0xCB,0x4E,0x20,0x8,0x3E,0x8,0xE0,0x21,0x3E,0x80,0xE0,0x23,0xC9
        08 3E 08 E0 21 3E
        80 E0 23 C9
   00E0 21 C0 C7 3E 01 77    18 .DB 0x21,0xC0,0xC7,0x3E,0x1,0x77,0x18,0xB0,0x21,0xF2,0x40,0x85,0x6F,0x7E,0xEA,0xC5
        18 B0 21 F2 40 85
        6F 7E EA C5
   00F0 C7 C9 FF 7F 3F BF    19 .DB 0xC7,0xC9,0xFF,0x7F,0x3F,0xBF,0x1F,0x5F,0x9F,0xDF,0x0,0x0,0x0,0x0,0x0,0x0
        1F 5F 9F DF 00 00
        00 00 00 00
   0100 AF 21 DC C7 22 2A    20 .DB 0xAF,0x21,0xDC,0xC7,0x22,0x2A,0xB7,0x28,0x2F,0xCB,0x7F,0x20,0x23,0x2A,0x86,0xE6
        B7 28 2F CB 7F 20
        23 2A 86 E6
   0110 1F 2D 47 7E E6 E0    21 .DB 0x1F,0x2D,0x47,0x7E,0xE6,0xE0,0x80,0x77,0x6F,0x26,0x47,0x7E,0xEA,0xE1,0xC7,0xCB
        80 77 6F 26 47 7E
        EA E1 C7 CB
   0120 7F 20 06 AF EA E3    22 .DB 0x7F,0x20,0x6,0xAF,0xEA,0xE3,0xC7,0x18,0xF,0x3E,0xFF,0xEA,0xE3,0xC7,0x18,0x8
        C7 18 0F 3E FF EA
        E3 C7 18 08
   0130 2E E0 2A 86 22 2A    23 .DB 0x2E,0xE0,0x2A,0x86,0x22,0x2A,0x8E,0x77,0x21,0xC6,0xC7,0x2A,0xB7,0xC2,0xEE,0x41
        8E 77 21 C6 C7 2A
        B7 C2 EE 41
   0140 35 C2 D7 41 11 C8    24 .DB 0x35,0xC2,0xD7,0x41,0x11,0xC8,0xC7,0x1A,0x6F,0x26,0x48,0xE6,0xF,0xB7,0x20,0x13
        C7 1A 6F 26 48 E6
        0F B7 20 13
   0150 7D CB 37 E6 0F C6    25 .DB 0x7D,0xCB,0x37,0xE6,0xF,0xC6,0xC0,0x4F,0x6,0x47,0xA,0x47,0xF0,0x25,0xE6,0xEE
        C0 4F 06 47 0A 47
        F0 25 E6 EE
   0160 B0 E0 25 7E B7 28    26 .DB 0xB0,0xE0,0x25,0x7E,0xB7,0x28,0x52,0x47,0xE6,0xF0,0xF6,0x8,0xE0,0x12,0x78,0xE6
        52 47 E6 F0 F6 08
        E0 12 78 E6
   0170 0F 1D 12 24 2A CB    27 .DB 0xF,0x1D,0x12,0x24,0x2A,0xCB,0x2F,0xCB,0x18,0xCB,0x2F,0xCB,0x18,0x87,0x67,0x78
        2F CB 18 CB 2F CB
        18 87 67 78
   0180 E6 C0 E0 11 7D 1C    28 .DB 0xE6,0xC0,0xE0,0x11,0x7D,0x1C,0x12,0x6,0x46,0x1C,0x1A,0x84,0x4F,0xFA,0xDD,0xC7
        12 06 46 1C 1A 84
        4F FA DD C7
   0190 CB 47 20 0F 0A E0    29 .DB 0xCB,0x47,0x20,0xF,0xA,0xE0,0x13,0x1C,0x12,0xC,0xA,0x1C,0x12,0xF6,0x80,0xE0
        13 1C 12 0C 0A 1C
        12 F6 80 E0
   01A0 14 18 4B 0A 0C 1C    30 .DB 0x14,0x18,0x4B,0xA,0xC,0x1C,0x12,0x1C,0x21,0xE1,0xC7,0x86,0xE0,0x13,0xA,0x12
        12 1C 21 E1 C7 86
        E0 13 0A 12
   01B0 2E E3 8E F6 80 E0    31 .DB 0x2E,0xE3,0x8E,0xF6,0x80,0xE0,0x14,0x18,0x35,0x24,0x46,0x2F,0xA8,0x28,0x9,0x7D
        14 18 35 24 46 2F
        A8 28 09 7D
   01C0 E6 F0 80 12 6F 25    32 .DB 0xE6,0xF0,0x80,0x12,0x6F,0x25,0x18,0x9B,0x3E,0x8,0xE0,0x12,0x3E,0x80,0xE0,0x14
        18 9B 3E 08 E0 12
        3E 80 E0 14
   01D0 21 C6 C7 CB C6 18    33 .DB 0x21,0xC6,0xC7,0xCB,0xC6,0x18,0x17,0x21,0xDD,0xC7,0xCB,0x46,0x28,0x10,0x11,0xCA
        17 21 DD C7 CB 46
        28 10 11 CA
   01E0 C7 1A 1C 2E E1 86    34 .DB 0xC7,0x1A,0x1C,0x2E,0xE1,0x86,0xE0,0x13,0x1A,0x2E,0xE3,0x8E,0xE0,0x14,0x21,0xCC
        E0 13 1A 2E E3 8E
        E0 14 21 CC
   01F0 C7 2A B7 C2 A5 42    35 .DB 0xC7,0x2A,0xB7,0xC2,0xA5,0x42,0x35,0xC2,0x8E,0x42,0x11,0xCE,0xC7,0x1A,0x6F,0x26
        35 C2 8E 42 11 CE
        C7 1A 6F 26
   0200 48 E6 0F B7 20 14    36 .DB 0x48,0xE6,0xF,0xB7,0x20,0x14,0x7D,0xCB,0x37,0xE6,0xF,0xC6,0xC0,0x4F,0x6,0x47
        7D CB 37 E6 0F C6
        C0 4F 06 47
   0210 0A 87 47 F0 25 E6    37 .DB 0xA,0x87,0x47,0xF0,0x25,0xE6,0xDD,0xB0,0xE0,0x25,0x7E,0xB7,0x28,0x52,0x47,0xE6
        DD B0 E0 25 7E B7
        28 52 47 E6
   0220 F0 F6 08 E0 17 78    38 .DB 0xF0,0xF6,0x8,0xE0,0x17,0x78,0xE6,0xF,0x1D,0x12,0x24,0x2A,0xCB,0x2F,0xCB,0x18
        E6 0F 1D 12 24 2A
        CB 2F CB 18
   0230 CB 2F CB 18 87 67    39 .DB 0xCB,0x2F,0xCB,0x18,0x87,0x67,0x78,0xE6,0xC0,0xE0,0x16,0x7D,0x1C,0x12,0x6,0x46
        78 E6 C0 E0 16 7D
        1C 12 06 46
   0240 1C 1A 84 4F FA DD    40 .DB 0x1C,0x1A,0x84,0x4F,0xFA,0xDD,0xC7,0xCB,0x4F,0x20,0xF,0xA,0xE0,0x18,0x1C,0x12
        C7 CB 4F 20 0F 0A
        E0 18 1C 12
   0250 0C 0A 1C 12 F6 80    41 .DB 0xC,0xA,0x1C,0x12,0xF6,0x80,0xE0,0x19,0x18,0x4B,0xA,0xC,0x1C,0x12,0x1C,0x21
        E0 19 18 4B 0A 0C
        1C 12 1C 21
   0260 E1 C7 86 E0 18 0A    42 .DB 0xE1,0xC7,0x86,0xE0,0x18,0xA,0x12,0x2E,0xE3,0x8E,0xF6,0x80,0xE0,0x19,0x18,0x35
        12 2E E3 8E F6 80
        E0 19 18 35
   0270 24 46 2F A8 28 09    43 .DB 0x24,0x46,0x2F,0xA8,0x28,0x9,0x7D,0xE6,0xF0,0x80,0x12,0x6F,0x25,0x18,0x9B,0x3E
        7D E6 F0 80 12 6F
        25 18 9B 3E
   0280 08 E0 17 3E 80 E0    44 .DB 0x8,0xE0,0x17,0x3E,0x80,0xE0,0x19,0x21,0xCC,0xC7,0xCB,0xC6,0x18,0x17,0x21,0xDD
        19 21 CC C7 CB C6
        18 17 21 DD
   0290 C7 CB 4E 28 10 11    45 .DB 0xC7,0xCB,0x4E,0x28,0x10,0x11,0xD0,0xC7,0x1A,0x1C,0x2E,0xE1,0x86,0xE0,0x18,0x1A
        D0 C7 1A 1C 2E E1
        86 E0 18 1A
   02A0 2E E3 8E E0 19 21    46 .DB 0x2E,0xE3,0x8E,0xE0,0x19,0x21,0xD2,0xC7,0x2A,0xB7,0xC2,0xAD,0x43,0x35,0xC2,0x93
        D2 C7 2A B7 C2 AD
        43 35 C2 93
   02B0 43 11 D5 C7 1A 6F    47 .DB 0x43,0x11,0xD5,0xC7,0x1A,0x6F,0x26,0x4A,0xE6,0xF,0xB7,0x20,0x15,0x7D,0xCB,0x37
        26 4A E6 0F B7 20
        15 7D CB 37
   02C0 E6 0F C6 D0 4F 06    48 .DB 0xE6,0xF,0xC6,0xD0,0x4F,0x6,0x47,0xA,0x87,0x87,0x47,0xF0,0x25,0xE6,0xBB,0xB0
        47 0A 87 87 47 F0
        25 E6 BB B0
   02D0 E0 25 7E B7 20 1A    49 .DB 0xE0,0x25,0x7E,0xB7,0x20,0x1A,0x24,0x46,0x2F,0xA8,0x28,0x9,0x7D,0xE6,0xF0,0x80
        24 46 2F A8 28 09
        7D E6 F0 80
   02E0 12 6F 25 18 ED AF    50 .DB 0x12,0x6F,0x25,0x18,0xED,0xAF,0xE0,0x1C,0x21,0xD2,0xC7,0xCB,0xC6,0xC3,0xAD,0x43
        E0 1C 21 D2 C7 CB
        C6 C3 AD 43
   02F0 47 E6 F0 1D 4F 1A    51 .DB 0x47,0xE6,0xF0,0x1D,0x4F,0x1A,0xB9,0x28,0x41,0xE5,0x79,0x12,0x6F,0x26,0x4C,0xAF
        B9 28 41 E5 79 12
        6F 26 4C AF
   0300 E0 1A 2A E0 30 2A    52 .DB 0xE0,0x1A,0x2A,0xE0,0x30,0x2A,0xE0,0x31,0x2A,0xE0,0x32,0x2A,0xE0,0x33,0x2A,0xE0
        E0 31 2A E0 32 2A
        E0 33 2A E0
   0310 34 2A E0 35 2A E0    53 .DB 0x34,0x2A,0xE0,0x35,0x2A,0xE0,0x36,0x2A,0xE0,0x37,0x2A,0xE0,0x38,0x2A,0xE0,0x39
        36 2A E0 37 2A E0
        38 2A E0 39
   0320 2A E0 3A 2A E0 3B    54 .DB 0x2A,0xE0,0x3A,0x2A,0xE0,0x3B,0x2A,0xE0,0x3C,0x2A,0xE0,0x3D,0x2A,0xE0,0x3E,0x7E
        2A E0 3C 2A E0 3D
        2A E0 3E 7E
   0330 E0 3F 3E 80 E0 1A    55 .DB 0xE0,0x3F,0x3E,0x80,0xE0,0x1A,0xEA,0xDC,0xC7,0xE1,0x78,0xE6,0xF,0x1E,0xD3,0x12
        EA DC C7 E1 78 E6
        0F 1E D3 12
   0340 24 2A CB 2F CB 18    56 .DB 0x24,0x2A,0xCB,0x2F,0xCB,0x18,0xCB,0x2F,0xCB,0x18,0x87,0xCB,0x28,0x67,0x78,0xE6
        CB 2F CB 18 87 CB
        28 67 78 E6
   0350 60 E0 1C 7D 1E D5    57 .DB 0x60,0xE0,0x1C,0x7D,0x1E,0xD5,0x12,0x6,0x46,0x1C,0x1A,0x84,0x4F,0xFA,0xDD,0xC7
        12 06 46 1C 1A 84
        4F FA DD C7
   0360 CB 57 20 14 0A E0    58 .DB 0xCB,0x57,0x20,0x14,0xA,0xE0,0x1D,0x1C,0x12,0xC,0xA,0x1C,0x12,0x21,0xDC,0xC7
        1D 1C 12 0C 0A 1C
        12 21 DC C7
   0370 86 E0 1E AF E0 1B    59 .DB 0x86,0xE0,0x1E,0xAF,0xE0,0x1B,0x18,0x35,0xA,0xC,0x1C,0x12,0x1C,0x21,0xE1,0xC7
        18 35 0A 0C 1C 12
        1C 21 E1 C7
   0380 86 E0 1D 0A 12 2E    60 .DB 0x86,0xE0,0x1D,0xA,0x12,0x2E,0xE3,0x8E,0x21,0xDC,0xC7,0x86,0xE0,0x1E,0xAF,0xE0
        E3 8E 21 DC C7 86
        E0 1E AF E0
   0390 1B 18 1A 21 DD C7    61 .DB 0x1B,0x18,0x1A,0x21,0xDD,0xC7,0xCB,0x56,0x28,0x13,0x11,0xD7,0xC7,0x1A,0x1C,0x2E
        CB 56 28 13 11 D7
        C7 1A 1C 2E
   03A0 E1 86 E0 1D 1A 2E    62 .DB 0xE1,0x86,0xE0,0x1D,0x1A,0x2E,0xE3,0x8E,0xE0,0x1E,0xAF,0xE0,0x1B,0x21,0xD9,0xC7
        E3 8E E0 1E AF E0
        1B 21 D9 C7
   03B0 2A B7 20 5E 35 20    63 .DB 0x2A,0xB7,0x20,0x5E,0x35,0x20,0x5B,0x11,0xDB,0xC7,0x1A,0x6F,0x26,0x4D,0xE6,0xF
        5B 11 DB C7 1A 6F
        26 4D E6 0F
   03C0 B7 20 16 7D CB 37    64 .DB 0xB7,0x20,0x16,0x7D,0xCB,0x37,0xE6,0xF,0xC6,0xE0,0x4F,0x6,0x47,0xA,0x87,0x87
        E6 0F C6 E0 4F 06
        47 0A 87 87
   03D0 87 47 F0 25 E6 77    65 .DB 0x87,0x47,0xF0,0x25,0xE6,0x77,0xB0,0xE0,0x25,0x7E,0xB7,0x28,0x19,0x47,0xE6,0xF0
        B0 E0 25 7E B7 28
        19 47 E6 F0
   03E0 F6 08 E0 21 78 E6    66 .DB 0xF6,0x8,0xE0,0x21,0x78,0xE6,0xF,0x1D,0x12,0x24,0x2A,0xE0,0x22,0x7D,0x1C,0x12
        0F 1D 12 24 2A E0
        22 7D 1C 12
   03F0 3E 80 E0 23 18 1C    67 .DB 0x3E,0x80,0xE0,0x23,0x18,0x1C,0x24,0x46,0x2F,0xA8,0x28,0x9,0x7D,0xE6,0xF0,0x80
        24 46 2F A8 28 09
        7D E6 F0 80
   0400 12 6F 25 18 D4 3E    68 .DB 0x12,0x6F,0x25,0x18,0xD4,0x3E,0x8,0xE0,0x21,0x3E,0x80,0xE0,0x23,0x21,0xD9,0xC7
        08 E0 21 3E 80 E0
        23 21 D9 C7
   0410 CB C6 21 C0 C7 2A    69 .DB 0xCB,0xC6,0x21,0xC0,0xC7,0x2A,0xB7,0xC0,0x2A,0x35,0x28,0x6,0xCB,0x2F,0xBE,0xC0
        B7 C0 2A 35 28 06
        CB 2F BE C0
   0420 18 01 77 2C AF B6    70 .DB 0x18,0x1,0x77,0x2C,0xAF,0xB6,0x20,0x1C,0x2C,0x2C,0x34,0x5E,0x16,0x4F,0x1A,0xB7
        20 1C 2C 2C 34 5E
        16 4F 1A B7
   0430 20 10 1C 1A 2F B7    71 .DB 0x20,0x10,0x1C,0x1A,0x2F,0xB7,0x20,0x5,0x3C,0xEA,0xC0,0xC7,0xC9,0x2F,0x77,0x5F
        20 05 3C EA C0 C7
        C9 2F 77 5F
   0440 18 EC 2D 32 16 C7    72 .DB 0x18,0xEC,0x2D,0x32,0x16,0xC7,0x2A,0x66,0x6F,0x2A,0xB7,0x28,0x18,0x1E,0xC9,0xCB
        2A 66 6F 2A B7 28
        18 1E C9 CB
   0450 47 28 05 E6 FE 12    73 .DB 0x47,0x28,0x5,0xE6,0xFE,0x12,0x18,0xD,0x12,0x7E,0x1D,0x12,0x1D,0x3E,0x1,0x12
        18 0D 12 7E 1D 12
        1D 3E 01 12
   0460 1D 1A E6 FE 12 2C    74 .DB 0x1D,0x1A,0xE6,0xFE,0x12,0x2C,0x2A,0xB7,0x28,0x18,0x1E,0xCF,0xCB,0x47,0x28,0x5
        2A B7 28 18 1E CF
        CB 47 28 05
   0470 E6 FE 12 18 0D 12    75 .DB 0xE6,0xFE,0x12,0x18,0xD,0x12,0x7E,0x1D,0x12,0x1D,0x3E,0x1,0x12,0x1D,0x1A,0xE6
        7E 1D 12 1D 3E 01
        12 1D 1A E6
   0480 FE 12 2C 2A B7 28    76 .DB 0xFE,0x12,0x2C,0x2A,0xB7,0x28,0x23,0xFE,0xFF,0x28,0x4E,0x1E,0xD6,0xCB,0x47,0x28
        23 FE FF 28 4E 1E
        D6 CB 47 28
   0490 05 E6 FE 12 18 14    77 .DB 0x5,0xE6,0xFE,0x12,0x18,0x14,0x12,0x7E,0x1D,0x12,0x1D,0x3E,0xFE,0x12,0x1D,0x2F
        12 7E 1D 12 1D 3E
        FE 12 1D 2F
   04A0 12 AF EA E6 C7 1D    78 .DB 0x12,0xAF,0xEA,0xE6,0xC7,0x1D,0x1A,0xE6,0xFA,0x12,0x2C,0x2A,0xB7,0x28,0xE,0xE6
        1A E6 FA 12 2C 2A
        B7 28 0E E6
   04B0 FE 1E DB 12 1D 3E    79 .DB 0xFE,0x1E,0xDB,0x12,0x1D,0x3E,0x1,0x12,0x1D,0x1A,0xE6,0xFE,0x12,0x2A,0x47,0x1E
        01 12 1D 1A E6 FE
        12 2A 47 1E
   04C0 C3 7D 12 78 B7 28    80 .DB 0xC3,0x7D,0x12,0x78,0xB7,0x28,0xE,0xCB,0x37,0xE6,0xF,0x87,0xC6,0xE0,0x26,0x46
        0E CB 37 E6 0F 87
        C6 E0 26 46
   04D0 6F 2A 66 6F E9 EA    81 .DB 0x6F,0x2A,0x66,0x6F,0xE9,0xEA,0xDD,0xC7,0xC9,0x1E,0xE7,0x3E,0x5,0x12,0x7E,0xC6
        DD C7 C9 1E E7 3E
        05 12 7E C6
   04E0 F0 4F 06 47 0A 87    82 .DB 0xF0,0x4F,0x6,0x47,0xA,0x87,0x87,0x1C,0x12,0x7E,0x87,0xC6,0xC0,0x6,0x46,0x4F
        87 1C 12 7E 87 C6
        C0 06 46 4F
   04F0 1C AF 12 1C 0A 12    83 .DB 0x1C,0xAF,0x12,0x1C,0xA,0x12,0xC,0x1C,0xA,0x12,0x18,0xAE,0x78,0xE6,0x7,0x87
        0C 1C 0A 12 18 AE
        78 E6 07 87
   0500 CB 37 21 DE C7 32    84 .DB 0xCB,0x37,0x21,0xDE,0xC7,0x32,0xAF,0x77,0xC9,0x78,0xE6,0xF,0xEA,0xDF,0xC7,0xAF
        AF 77 C9 78 E6 0F
        EA DF C7 AF
   0510 EA DD C7 C9 78 E6    85 .DB 0xEA,0xDD,0xC7,0xC9,0x78,0xE6,0xF,0x21,0xE0,0xC7,0x22,0xAF,0x22,0x22,0x77,0xEA
        0F 21 E0 C7 22 AF
        22 22 77 EA
   0520 DD C7 C9 78 E6 0F    86 .DB 0xDD,0xC7,0xC9,0x78,0xE6,0xF,0x2F,0x21,0xE0,0xC7,0x22,0xAF,0xEA,0xDD,0xC7,0x22
        2F 21 E0 C7 22 AF
        EA DD C7 22
   0530 2C 32 36 FF C9 78    87 .DB 0x2C,0x32,0x36,0xFF,0xC9,0x78,0xE6,0xF,0x21,0xC1,0xC7,0x22,0x77,0xAF,0xEA,0xDD
        E6 0F 21 C1 C7 22
        77 AF EA DD
   0540 C7 C9 AF EA C3 C7    88 .DB 0xC7,0xC9,0xAF,0xEA,0xC3,0xC7,0xEA,0xDD,0xC7,0xC9,0x78,0xE6,0xF,0xEA,0xDD,0xC7
        EA DD C7 C9 78 E6
        0F EA DD C7
   0550 C9 78 E6 0F F6 80    89 .DB 0xC9,0x78,0xE6,0xF,0xF6,0x80,0xEA,0xDD,0xC7,0xC9,0x0,0x0,0x0,0x0,0x0,0x0
        EA DD C7 C9 00 00
        00 00 00 00
   0560 00 00 00 00 00 00    90 .DB 0x0,0x0,0x0,0x0,0x0,0x0,0x0,0x0,0x0,0x0,0x0,0x0,0x0,0x0,0x0,0x0
        00 00 00 00 00 00
        00 00 00 00
   0570 00 00 00 00 00 00    91 .DB 0x0,0x0,0x0,0x0,0x0,0x0,0x0,0x0,0x0,0x0,0x0,0x0,0x0,0x0,0x0,0x0
        00 00 00 00 00 00
        00 00 00 00
   0580 00 00 00 00 00 00    92 .DB 0x0,0x0,0x0,0x0,0x0,0x0,0x0,0x0,0x0,0x0,0x0,0x0,0x0,0x0,0x0,0x0
        00 00 00 00 00 00
        00 00 00 00
   0590 00 00 00 00 00 00    93 .DB 0x0,0x0,0x0,0x0,0x0,0x0,0x0,0x0,0x0,0x0,0x0,0x0,0x0,0x0,0x0,0x0
        00 00 00 00 00 00
        00 00 00 00
   05A0 00 00 00 00 00 00    94 .DB 0x0,0x0,0x0,0x0,0x0,0x0,0x0,0x0,0x0,0x0,0x0,0x0,0x0,0x0,0x0,0x0
        00 00 00 00 00 00
        00 00 00 00
   05B0 00 00 00 00 00 00    95 .DB 0x0,0x0,0x0,0x0,0x0,0x0,0x0,0x0,0x0,0x0,0x0,0x0,0x0,0x0,0x0,0x0
        00 00 00 00 00 00
        00 00 00 00
   05C0 00 00 00 00 00 00    96 .DB 0x0,0x0,0x0,0x0,0x0,0x0,0x0,0x0,0x0,0x0,0x0,0x0,0x0,0x0,0x0,0x0
        00 00 00 00 00 00
        00 00 00 00
   05D0 00 00 00 00 00 00    97 .DB 0x0,0x0,0x0,0x0,0x0,0x0,0x0,0x0,0x0,0x0,0x0,0x0,0x0,0x0,0x0,0x0
        00 00 00 00 00 00
        00 00 00 00
   05E0 00 00 00 00 00 00    98 .DB 0x0,0x0,0x0,0x0,0x0,0x0,0x0,0x0,0x0,0x0,0x0,0x0,0x0,0x0,0x0,0x0
        00 00 00 00 00 00
        00 00 00 00
   05F0 00 00 00 00 00 00    99 .DB 0x0,0x0,0x0,0x0,0x0,0x0,0x0,0x0,0x0,0x0,0x0,0x0,0x0,0x0,0x0,0x0
        00 00 00 00 00 00
        00 00 00 00
   0600 2C 00 9D 00 07 01   100 .DB 0x2C,0x0,0x9D,0x0,0x7,0x1,0x6B,0x1,0xC9,0x1,0x23,0x2,0x77,0x2,0xC7,0x2
        6B 01 C9 01 23 02
        77 02 C7 02
   0610 12 03 58 03 9B 03   101 .DB 0x12,0x3,0x58,0x3,0x9B,0x3,0xDA,0x3,0x2C,0x0,0x9D,0x0,0x7,0x1,0x6B,0x1
        DA 03 2C 00 9D 00
        07 01 6B 01
   0620 C9 01 23 02 77 02   102 .DB 0xC9,0x1,0x23,0x2,0x77,0x2,0xC7,0x2,0x12,0x3,0x58,0x3,0x9B,0x3,0xDA,0x3
        C7 02 12 03 58 03
        9B 03 DA 03
   0630 16 04 4E 04 83 04   103 .DB 0x16,0x4,0x4E,0x4,0x83,0x4,0xB5,0x4,0xE5,0x4,0x11,0x5,0x3B,0x5,0x63,0x5
        B5 04 E5 04 11 05
        3B 05 63 05
   0640 89 05 AC 05 CE 05   104 .DB 0x89,0x5,0xAC,0x5,0xCE,0x5,0xED,0x5,0xB,0x6,0x27,0x6,0x42,0x6,0x5B,0x6
        ED 05 0B 06 27 06
        42 06 5B 06
   0650 72 06 89 06 9E 06   105 .DB 0x72,0x6,0x89,0x6,0x9E,0x6,0xB2,0x6,0xC4,0x6,0xD6,0x6,0xE7,0x6,0xF7,0x6
        B2 06 C4 06 D6 06
        E7 06 F7 06
   0660 06 07 14 07 21 07   106 .DB 0x6,0x7,0x14,0x7,0x21,0x7,0x2D,0x7,0x39,0x7,0x44,0x7,0x4F,0x7,0x59,0x7
        2D 07 39 07 44 07
        4F 07 59 07
   0670 62 07 6B 07 73 07   107 .DB 0x62,0x7,0x6B,0x7,0x73,0x7,0x7B,0x7,0x83,0x7,0x8A,0x7,0x90,0x7,0x97,0x7
        7B 07 83 07 8A 07
        90 07 97 07
   0680 9D 07 A2 07 A7 07   108 .DB 0x9D,0x7,0xA2,0x7,0xA7,0x7,0xAC,0x7,0xB1,0x7,0xB6,0x7,0xBA,0x7,0xBE,0x7
        AC 07 B1 07 B6 07
        BA 07 BE 07
   0690 C1 07 C5 07 C8 07   109 .DB 0xC1,0x7,0xC5,0x7,0xC8,0x7,0xCB,0x7,0xCE,0x7,0xD1,0x7,0xD4,0x7,0xD6,0x7
        CB 07 CE 07 D1 07
        D4 07 D6 07
   06A0 D9 07 DB 07 DD 07   110 .DB 0xD9,0x7,0xDB,0x7,0xDD,0x7,0xDF,0x7,0xC1,0x7,0xC5,0x7,0xC8,0x7,0xCB,0x7
        DF 07 C1 07 C5 07
        C8 07 CB 07
   06B0 CE 07 D1 07 D4 07   111 .DB 0xCE,0x7,0xD1,0x7,0xD4,0x7,0xD6,0x7,0xD9,0x7,0xDB,0x7,0xDD,0x7,0xDF,0x7
        D6 07 D9 07 DB 07
        DD 07 DF 07
   06C0 00 01 00 01 00 01   112 .DB 0x0,0x1,0x0,0x1,0x0,0x1,0x0,0x1,0x0,0x1,0x0,0x1,0x0,0x1,0x0,0x1
        00 01 00 01 00 01
        00 01 00 01
   06D0 00 01 00 01 00 01   113 .DB 0x0,0x1,0x0,0x1,0x0,0x1,0x0,0x1,0x0,0x1,0x0,0x1,0x0,0x1,0x0,0x1
        00 01 00 01 00 01
        00 01 00 01
   06E0 59 45 4A 45 51 45   114 .DB 0x59,0x45,0x4A,0x45,0x51,0x45,0xFC,0x44,0x9,0x45,0x14,0x45,0x23,0x45,0x35,0x45
        FC 44 09 45 14 45
        23 45 35 45
   06F0 42 45 59 45 59 45   115 .DB 0x42,0x45,0x59,0x45,0x59,0x45,0x59,0x45,0x59,0x45,0x59,0x45,0x59,0x45,0x59,0x45
        59 45 59 45 59 45
        59 45 59 45
   0700 00 00 00 01 01 01   116 .DB 0x0,0x0,0x0,0x1,0x1,0x1,0x1,0x1,0x2,0x1,0x1,0x1,0x1,0x1,0x0,0x0
        01 01 02 01 01 01
        01 01 00 00
   0710 00 FF FE FD FD FC   117 .DB 0x0,0xFF,0xFE,0xFD,0xFD,0xFC,0xFC,0xFC,0xFC,0xFC,0xFC,0xFC,0xFD,0xFD,0xFE,0xFF
        FC FC FC FC FC FC
        FD FD FE FF
   0720 00 00 01 01 02 02   118 .DB 0x0,0x0,0x1,0x1,0x2,0x2,0x2,0x2,0x3,0x2,0x2,0x2,0x2,0x1,0x1,0x0
        02 02 03 02 02 02
        02 01 01 00
   0730 00 FE FD FC FB FB   119 .DB 0x0,0xFE,0xFD,0xFC,0xFB,0xFB,0xFA,0xFA,0xFA,0xFA,0xFA,0xFB,0xFB,0xFC,0xFD,0xFE
        FA FA FA FA FA FB
        FB FC FD FE
   0740 00 01 02 03 04 04   120 .DB 0x0,0x1,0x2,0x3,0x4,0x4,0x5,0x5,0x6,0x5,0x5,0x4,0x4,0x3,0x2,0x1
        05 05 06 05 05 04
        04 03 02 01
   0750 00 FD FB F9 F7 F6   121 .DB 0x0,0xFD,0xFB,0xF9,0xF7,0xF6,0xF4,0xF4,0xF4,0xF4,0xF4,0xF6,0xF7,0xF9,0xFB,0xFD
        F4 F4 F4 F4 F4 F6
        F7 F9 FB FD
   0760 00 01 03 05 07 08   122 .DB 0x0,0x1,0x3,0x5,0x7,0x8,0x9,0x9,0xA,0x9,0x9,0x8,0x7,0x5,0x3,0x1
        09 09 0A 09 09 08
        07 05 03 01
   0770 00 FC F8 F4 F1 EF   123 .DB 0x0,0xFC,0xF8,0xF4,0xF1,0xEF,0xED,0xEC,0xEC,0xEC,0xED,0xEF,0xF1,0xF4,0xF8,0xFC
        ED EC EC EC ED EF
        F1 F4 F8 FC
   0780 00 02 05 08 0A 0C   124 .DB 0x0,0x2,0x5,0x8,0xA,0xC,0xD,0xE,0xF,0xE,0xD,0xC,0xA,0x8,0x5,0x2
        0D 0E 0F 0E 0D 0C
        0A 08 05 02
   0790 00 FA F4 EF EA E7   125 .DB 0x0,0xFA,0xF4,0xEF,0xEA,0xE7,0xE4,0xE2,0xE2,0xE2,0xE4,0xE7,0xEA,0xEF,0xF4,0xFA
        E4 E2 E2 E2 E4 E7
        EA EF F4 FA
   07A0 00 03 07 0B 0E 10   126 .DB 0x0,0x3,0x7,0xB,0xE,0x10,0x12,0x13,0x14,0x13,0x12,0x10,0xE,0xB,0x7,0x3
        12 13 14 13 12 10
        0E 0B 07 03
   07B0 00 F8 F0 E9 E3 DE   127 .DB 0x0,0xF8,0xF0,0xE9,0xE3,0xDE,0xDB,0xD8,0xD8,0xD8,0xDB,0xDE,0xE3,0xE9,0xF0,0xF8
        DB D8 D8 D8 DB DE
        E3 E9 F0 F8
   07C0 11 11 11 11 10 11   128 .DB 0x11,0x11,0x11,0x11,0x10,0x11,0x1,0x10,0x1,0x11,0x11,0x11,0x11,0x11,0x11,0x11
        01 10 01 11 11 11
        11 11 11 11
   07D0 11 11 11 11 11 01   129 .DB 0x11,0x11,0x11,0x11,0x11,0x1,0x11,0x1,0x11,0x11,0x11,0x11,0x11,0x11,0x11,0x11
        11 01 11 11 11 11
        11 11 11 11
   07E0 11 11 11 11 11 11   130 .DB 0x11,0x11,0x11,0x11,0x11,0x11,0x11,0x11,0x11,0x11,0x11,0x11,0x11,0x11,0x11,0x11
        11 11 11 11 11 11
        11 11 11 11
   07F0 11 11 11 11 11 11   131 .DB 0x11,0x11,0x11,0x11,0x11,0x11,0x11,0x11,0x11,0x11,0x11,0x11,0x11,0x11,0x11,0x11
        11 11 11 11 11 11
        11 11 11 11
   0800 F2 A2 C2 95 84 66   132 .DB 0xF2,0xA2,0xC2,0x95,0x84,0x66,0x55,0x33,0x3,0x0,0x0,0x0,0x0,0x0,0x0,0x0
        55 33 03 00 00 00
        00 00 00 00
   0810 F1 F1 F2 E1 00 00   133 .DB 0xF1,0xF1,0xF2,0xE1,0x0,0x0,0x0,0x0,0x0,0x0,0x0,0x0,0x0,0x0,0x0,0x0
        00 00 00 00 00 00
        00 00 00 00
   0820 61 91 C1 D1 E2 F3   134 .DB 0x61,0x91,0xC1,0xD1,0xE2,0xF3,0x54,0x31,0x41,0x42,0x41,0x43,0x34,0x26,0x1A,0x0
        54 31 41 42 41 43
        34 26 1A 00
   0830 F4 D2 A1 72 48 00   135 .DB 0xF4,0xD2,0xA1,0x72,0x48,0x0,0x0,0x0,0x0,0x0,0x0,0x0,0x0,0x0,0x0,0x0
        00 00 00 00 00 00
        00 00 00 00
   0840 F2 F2 F2 F2 F2 F2   136 .DB 0xF2,0xF2,0xF2,0xF2,0xF2,0xF2,0xF1,0xF1,0xB1,0xB1,0x81,0x81,0x51,0x41,0x56,0x0
        F1 F1 B1 B1 81 81
        51 41 56 00
   0850 F2 F2 F2 F2 F2 F2   137 .DB 0xF2,0xF2,0xF2,0xF2,0xF2,0xF2,0xF1,0xF1,0xB1,0xB1,0x81,0x81,0x51,0x41,0x56,0x0
        F1 F1 B1 B1 81 81
        51 41 56 00
   0860 F1 F2 F2 66 00 00   138 .DB 0xF1,0xF2,0xF2,0x66,0x0,0x0,0x0,0x0,0x0,0x0,0x0,0x0,0x0,0x0,0x0,0x0
        00 00 00 00 00 00
        00 00 00 00
   0870 F4 F1 00 00 00 00   139 .DB 0xF4,0xF1,0x0,0x0,0x0,0x0,0x0,0x0,0x0,0x0,0x0,0x0,0x0,0x0,0x0,0x0
        00 00 00 00 00 00
        00 00 00 00
   0880 F1 F1 F1 F1 F1 F1   140 .DB 0xF1,0xF1,0xF1,0xF1,0xF1,0xF1,0xF1,0xF1,0xF1,0x0,0x0,0x0,0x0,0x0,0x0,0x0
        F1 F1 F1 00 00 00
        00 00 00 00
   0890 00 00 00 00 00 00   141 .DB 0x0,0x0,0x0,0x0,0x0,0x0,0x0,0x0,0x0,0x0,0x0,0x0,0x0,0x0,0x0,0x0
        00 00 00 00 00 00
        00 00 00 00
   08A0 00 00 00 00 00 00   142 .DB 0x0,0x0,0x0,0x0,0x0,0x0,0x0,0x0,0x0,0x0,0x0,0x0,0x0,0x0,0x0,0x0
        00 00 00 00 00 00
        00 00 00 00
   08B0 F2 F2 F2 F2 F2 F2   143 .DB 0xF2,0xF2,0xF2,0xF2,0xF2,0xF2,0xF1,0xF1,0xB1,0xB1,0x81,0x81,0x51,0x41,0x56,0x0
        F1 F1 B1 B1 81 81
        51 41 56 00
   08C0 00 00 00 00 00 00   144 .DB 0x0,0x0,0x0,0x0,0x0,0x0,0x0,0x0,0x0,0x0,0x0,0x0,0x0,0x0,0x0,0x0
        00 00 00 00 00 00
        00 00 00 00
   08D0 00 00 00 00 00 00   145 .DB 0x0,0x0,0x0,0x0,0x0,0x0,0x0,0x0,0x0,0x0,0x0,0x0,0x0,0x0,0x0,0x0
        00 00 00 00 00 00
        00 00 00 00
   08E0 00 00 00 00 00 00   146 .DB 0x0,0x0,0x0,0x0,0x0,0x0,0x0,0x0,0x0,0x0,0x0,0x0,0x0,0x0,0x0,0x0
        00 00 00 00 00 00
        00 00 00 00
   08F0 00 00 00 00 00 00   147 .DB 0x0,0x0,0x0,0x0,0x0,0x0,0x0,0x0,0x0,0x0,0x0,0x0,0x0,0x0,0x0,0x0
        00 00 00 00 00 00
        00 00 00 00
   0900 02 00 01 01 01 01   148 .DB 0x2,0x0,0x1,0x1,0x1,0x1,0x1,0x1,0x1,0xFF,0xFF,0xFF,0xFF,0xFF,0xFF,0xFF
        01 01 01 FF FF FF
        FF FF FF FF
   0910 1E FE FA E2 FF FF   149 .DB 0x1E,0xFE,0xFA,0xE2,0xFF,0xFF,0xFF,0xFF,0xFF,0xFF,0xFF,0xFF,0xFF,0xFF,0xFF,0xFF
        FF FF FF FF FF FF
        FF FF FF FF
   0920 F2 FA FE 01 01 00   150 .DB 0xF2,0xFA,0xFE,0x1,0x1,0x0,0x0,0xFA,0xFE,0x2,0x5,0x1,0x2,0x1,0x0,0xFF
        00 FA FE 02 05 01
        02 01 00 FF
   0930 03 03 02 01 00 FF   151 .DB 0x3,0x3,0x2,0x1,0x0,0xFF,0xFF,0xFF,0xFF,0xFF,0xFF,0xFF,0xFF,0xFF,0xFF,0xFF
        FF FF FF FF FF FF
        FF FF FF FF
   0940 F9 0A 16 F8 08 14   152 .DB 0xF9,0xA,0x16,0xF8,0x8,0x14,0xF8,0x8,0x14,0xF8,0x8,0x14,0xF8,0x8,0x14,0xFF
        F8 08 14 F8 08 14
        F8 08 14 FF
   0950 F9 0E 1E F8 0C 1C   153 .DB 0xF9,0xE,0x1E,0xF8,0xC,0x1C,0xF8,0xC,0x1C,0xF8,0xC,0x1C,0xF8,0xC,0x1C,0xFF
        F8 0C 1C F8 0C 1C
        F8 0C 1C FF
   0960 02 01 00 00 FF FF   154 .DB 0x2,0x1,0x0,0x0,0xFF,0xFF,0xFF,0xFF,0xFF,0xFF,0xFF,0xFF,0xFF,0xFF,0xFF,0xFF
        FF FF FF FF FF FF
        FF FF FF FF
   0970 02 00 FF FF FF FF   155 .DB 0x2,0x0,0xFF,0xFF,0xFF,0xFF,0xFF,0xFF,0xFF,0xFF,0xFF,0xFF,0xFF,0xFF,0xFF,0xFF
        FF FF FF FF FF FF
        FF FF FF FF
   0980 02 0E 16 1A 26 1E   156 .DB 0x2,0xE,0x16,0x1A,0x26,0x1E,0x12,0xA,0x2,0xFF,0xFF,0xFF,0xFF,0xFF,0xFF,0xFF
        12 0A 02 FF FF FF
        FF FF FF FF
   0990 FF FF FF FF FF FF   157 .DB 0xFF,0xFF,0xFF,0xFF,0xFF,0xFF,0xFF,0xFF,0xFF,0xFF,0xFF,0xFF,0xFF,0xFF,0xFF,0xFF
        FF FF FF FF FF FF
        FF FF FF FF
   09A0 FF FF FF FF FF FF   158 .DB 0xFF,0xFF,0xFF,0xFF,0xFF,0xFF,0xFF,0xFF,0xFF,0xFF,0xFF,0xFF,0xFF,0xFF,0xFF,0xFF
        FF FF FF FF FF FF
        FF FF FF FF
   09B0 F9 0A 16 F8 08 14   159 .DB 0xF9,0xA,0x16,0xF8,0x8,0x14,0xF8,0x8,0x14,0xF8,0x8,0x14,0xF8,0x8,0x14,0xFF
        F8 08 14 F8 08 14
        F8 08 14 FF
   09C0 FF FF FF FF FF FF   160 .DB 0xFF,0xFF,0xFF,0xFF,0xFF,0xFF,0xFF,0xFF,0xFF,0xFF,0xFF,0xFF,0xFF,0xFF,0xFF,0xFF
        FF FF FF FF FF FF
        FF FF FF FF
   09D0 FF FF FF FF FF FF   161 .DB 0xFF,0xFF,0xFF,0xFF,0xFF,0xFF,0xFF,0xFF,0xFF,0xFF,0xFF,0xFF,0xFF,0xFF,0xFF,0xFF
        FF FF FF FF FF FF
        FF FF FF FF
   09E0 FF FF FF FF FF FF   162 .DB 0xFF,0xFF,0xFF,0xFF,0xFF,0xFF,0xFF,0xFF,0xFF,0xFF,0xFF,0xFF,0xFF,0xFF,0xFF,0xFF
        FF FF FF FF FF FF
        FF FF FF FF
   09F0 FF FF FF FF FF FF   163 .DB 0xFF,0xFF,0xFF,0xFF,0xFF,0xFF,0xFF,0xFF,0xFF,0xFF,0xFF,0xFF,0xFF,0xFF,0xFF,0xFF
        FF FF FF FF FF FF
        FF FF FF FF
   0A00 00 00 00 00 00 00   164 .DB 0x0,0x0,0x0,0x0,0x0,0x0,0x0,0x0,0x0,0x0,0x0,0x0,0x0,0x0,0x0,0x0
        00 00 00 00 00 00
        00 00 00 00
   0A10 00 00 00 00 00 00   165 .DB 0x0,0x0,0x0,0x0,0x0,0x0,0x0,0x0,0x0,0x0,0x0,0x0,0x0,0x0,0x0,0x0
        00 00 00 00 00 00
        00 00 00 00
   0A20 00 00 00 00 00 00   166 .DB 0x0,0x0,0x0,0x0,0x0,0x0,0x0,0x0,0x0,0x0,0x0,0x0,0x0,0x0,0x0,0x0
        00 00 00 00 00 00
        00 00 00 00
   0A30 A2 B1 B2 C1 C1 D2   167 .DB 0xA2,0xB1,0xB2,0xC1,0xC1,0xD2,0xD2,0xEC,0xE9,0x0,0x0,0x0,0x0,0x0,0x0,0x0
        D2 EC E9 00 00 00
        00 00 00 00
   0A40 11 11 12 12 35 25   168 .DB 0x11,0x11,0x12,0x12,0x35,0x25,0x13,0x13,0x13,0x18,0x0,0x0,0x0,0x0,0x0,0x0
        13 13 13 18 00 00
        00 00 00 00
   0A50 01 F2 E4 00 00 00   169 .DB 0x1,0xF2,0xE4,0x0,0x0,0x0,0x0,0x0,0x0,0x0,0x0,0x0,0x0,0x0,0x0,0x0
        00 00 00 00 00 00
        00 00 00 00
   0A60 42 03 24 00 00 00   170 .DB 0x42,0x3,0x24,0x0,0x0,0x0,0x0,0x0,0x0,0x0,0x0,0x0,0x0,0x0,0x0,0x0
        00 00 00 00 00 00
        00 00 00 00
   0A70 45 32 13 00 00 00   171 .DB 0x45,0x32,0x13,0x0,0x0,0x0,0x0,0x0,0x0,0x0,0x0,0x0,0x0,0x0,0x0,0x0
        00 00 00 00 00 00
        00 00 00 00
   0A80 06 97 00 00 00 00   172 .DB 0x6,0x97,0x0,0x0,0x0,0x0,0x0,0x0,0x0,0x0,0x0,0x0,0x0,0x0,0x0,0x0
        00 00 00 00 00 00
        00 00 00 00
   0A90 24 00 00 00 00 00   173 .DB 0x24,0x0,0x0,0x0,0x0,0x0,0x0,0x0,0x0,0x0,0x0,0x0,0x0,0x0,0x0,0x0
        00 00 00 00 00 00
        00 00 00 00
   0AA0 11 54 00 00 00 00   174 .DB 0x11,0x54,0x0,0x0,0x0,0x0,0x0,0x0,0x0,0x0,0x0,0x0,0x0,0x0,0x0,0x0
        00 00 00 00 00 00
        00 00 00 00
   0AB0 00 00 00 00 00 00   175 .DB 0x0,0x0,0x0,0x0,0x0,0x0,0x0,0x0,0x0,0x0,0x0,0x0,0x0,0x0,0x0,0x0
        00 00 00 00 00 00
        00 00 00 00
   0AC0 00 00 00 00 00 00   176 .DB 0x0,0x0,0x0,0x0,0x0,0x0,0x0,0x0,0x0,0x0,0x0,0x0,0x0,0x0,0x0,0x0
        00 00 00 00 00 00
        00 00 00 00
   0AD0 00 00 00 00 00 00   177 .DB 0x0,0x0,0x0,0x0,0x0,0x0,0x0,0x0,0x0,0x0,0x0,0x0,0x0,0x0,0x0,0x0
        00 00 00 00 00 00
        00 00 00 00
   0AE0 00 00 00 00 00 00   178 .DB 0x0,0x0,0x0,0x0,0x0,0x0,0x0,0x0,0x0,0x0,0x0,0x0,0x0,0x0,0x0,0x0
        00 00 00 00 00 00
        00 00 00 00
   0AF0 00 00 00 00 00 00   179 .DB 0x0,0x0,0x0,0x0,0x0,0x0,0x0,0x0,0x0,0x0,0x0,0x0,0x0,0x0,0x0,0x0
        00 00 00 00 00 00
        00 00 00 00
   0B00 FF FF FF FF FF FF   180 .DB 0xFF,0xFF,0xFF,0xFF,0xFF,0xFF,0xFF,0xFF,0xFF,0xFF,0xFF,0xFF,0xFF,0xFF,0xFF,0xFF
        FF FF FF FF FF FF
        FF FF FF FF
   0B10 FF FF FF FF FF FF   181 .DB 0xFF,0xFF,0xFF,0xFF,0xFF,0xFF,0xFF,0xFF,0xFF,0xFF,0xFF,0xFF,0xFF,0xFF,0xFF,0xFF
        FF FF FF FF FF FF
        FF FF FF FF
   0B20 FF FF FF FF FF FF   182 .DB 0xFF,0xFF,0xFF,0xFF,0xFF,0xFF,0xFF,0xFF,0xFF,0xFF,0xFF,0xFF,0xFF,0xFF,0xFF,0xFF
        FF FF FF FF FF FF
        FF FF FF FF
   0B30 01 01 01 01 01 01   183 .DB 0x1,0x1,0x1,0x1,0x1,0x1,0x2,0x2,0x3,0xFF,0xFF,0xFF,0xFF,0xFF,0xFF,0xFF
        02 02 03 FF FF FF
        FF FF FF FF
   0B40 FD 01 05 FD 01 01   184 .DB 0xFD,0x1,0x5,0xFD,0x1,0x1,0x2,0x2,0x2,0x3,0xFF,0xFF,0xFF,0xFF,0xFF,0xFF
        02 02 02 03 FF FF
        FF FF FF FF
   0B50 31 31 31 FF FF FF   185 .DB 0x31,0x31,0x31,0xFF,0xFF,0xFF,0xFF,0xFF,0xFF,0xFF,0xFF,0xFF,0xFF,0xFF,0xFF,0xFF
        FF FF FF FF FF FF
        FF FF FF FF
   0B60 FD 01 01 FF FF FF   186 .DB 0xFD,0x1,0x1,0xFF,0xFF,0xFF,0xFF,0xFF,0xFF,0xFF,0xFF,0xFF,0xFF,0xFF,0xFF,0xFF
        FF FF FF FF FF FF
        FF FF FF FF
   0B70 01 02 03 FF FF FF   187 .DB 0x1,0x2,0x3,0xFF,0xFF,0xFF,0xFF,0xFF,0xFF,0xFF,0xFF,0xFF,0xFF,0xFF,0xFF,0xFF
        FF FF FF FF FF FF
        FF FF FF FF
   0B80 31 02 FF FF FF FF   188 .DB 0x31,0x2,0xFF,0xFF,0xFF,0xFF,0xFF,0xFF,0xFF,0xFF,0xFF,0xFF,0xFF,0xFF,0xFF,0xFF
        FF FF FF FF FF FF
        FF FF FF FF
   0B90 D1 FF FF FF FF FF   189 .DB 0xD1,0xFF,0xFF,0xFF,0xFF,0xFF,0xFF,0xFF,0xFF,0xFF,0xFF,0xFF,0xFF,0xFF,0xFF,0xFF
        FF FF FF FF FF FF
        FF FF FF FF
   0BA0 01 01 FF FF FF FF   190 .DB 0x1,0x1,0xFF,0xFF,0xFF,0xFF,0xFF,0xFF,0xFF,0xFF,0xFF,0xFF,0xFF,0xFF,0xFF,0xFF
        FF FF FF FF FF FF
        FF FF FF FF
   0BB0 FF FF FF FF FF FF   191 .DB 0xFF,0xFF,0xFF,0xFF,0xFF,0xFF,0xFF,0xFF,0xFF,0xFF,0xFF,0xFF,0xFF,0xFF,0xFF,0xFF
        FF FF FF FF FF FF
        FF FF FF FF
   0BC0 FF FF FF FF FF FF   192 .DB 0xFF,0xFF,0xFF,0xFF,0xFF,0xFF,0xFF,0xFF,0xFF,0xFF,0xFF,0xFF,0xFF,0xFF,0xFF,0xFF
        FF FF FF FF FF FF
        FF FF FF FF
   0BD0 FF FF FF FF FF FF   193 .DB 0xFF,0xFF,0xFF,0xFF,0xFF,0xFF,0xFF,0xFF,0xFF,0xFF,0xFF,0xFF,0xFF,0xFF,0xFF,0xFF
        FF FF FF FF FF FF
        FF FF FF FF
   0BE0 FF FF FF FF FF FF   194 .DB 0xFF,0xFF,0xFF,0xFF,0xFF,0xFF,0xFF,0xFF,0xFF,0xFF,0xFF,0xFF,0xFF,0xFF,0xFF,0xFF
        FF FF FF FF FF FF
        FF FF FF FF
   0BF0 FF FF FF FF FF FF   195 .DB 0xFF,0xFF,0xFF,0xFF,0xFF,0xFF,0xFF,0xFF,0xFF,0xFF,0xFF,0xFF,0xFF,0xFF,0xFF,0xFF
        FF FF FF FF FF FF
        FF FF FF FF
   0C00 74 10 01 25 74 10   196 .DB 0x74,0x10,0x1,0x25,0x74,0x10,0x1,0x35,0x8B,0xDF,0xFE,0xCA,0x88,0xBD,0xFF,0xEA
        01 35 8B DF FE CA
        88 BD FF EA
   0C10 FF FF FF FF 00 00   197 .DB 0xFF,0xFF,0xFF,0xFF,0x0,0x0,0x0,0x0,0x0,0x0,0x0,0x0,0x0,0x0,0x0,0x0
        00 00 00 00 00 00
        00 00 00 00
   0C20 FF FF FF FF FF FF   198 .DB 0xFF,0xFF,0xFF,0xFF,0xFF,0xFF,0xFF,0xFF,0x0,0x0,0x0,0x0,0x0,0x0,0x0,0x0
        FF FF 00 00 00 00
        00 00 00 00
   0C30 FF FF FF FF FF FF   199 .DB 0xFF,0xFF,0xFF,0xFF,0xFF,0xFF,0xFF,0xFF,0xFF,0xFF,0xFF,0xFF,0x0,0x0,0x0,0x0
        FF FF FF FF FF FF
        00 00 00 00
   0C40 FF EE DD CC BB AA   200 .DB 0xFF,0xEE,0xDD,0xCC,0xBB,0xAA,0x99,0x88,0x77,0x66,0x55,0x44,0x33,0x22,0x11,0x0
        99 88 77 66 55 44
        33 22 11 00
   0C50 EF ED DD CB BB A9   201 .DB 0xEF,0xED,0xDD,0xCB,0xBB,0xA9,0x99,0x88,0x77,0x66,0x65,0x44,0x43,0x22,0x21,0x1
        99 88 77 66 65 44
        43 22 21 01
   0C60 CF FE DD CC BB AA   202 .DB 0xCF,0xFE,0xDD,0xCC,0xBB,0xAA,0x99,0x88,0x77,0x66,0x55,0x44,0x33,0x32,0x10,0x3
        99 88 77 66 55 44
        33 32 10 03
   0C70 BF FE CB BB BB AA   203 .DB 0xBF,0xFE,0xCB,0xBB,0xBB,0xAA,0x98,0x88,0x77,0x76,0x55,0x44,0x44,0x43,0x10,0x4
        98 88 77 76 55 44
        44 43 10 04
   0C80 BE FF FE DC BA 99   204 .DB 0xBE,0xFF,0xFE,0xDC,0xBA,0x99,0x88,0x88,0x77,0x77,0x66,0x54,0x32,0x10,0x0,0x14
        88 88 77 77 66 54
        32 10 00 14
   0C90 BD EE FF EE ED CC   205 .DB 0xBD,0xEE,0xFF,0xEE,0xED,0xCC,0xBA,0x98,0x76,0x54,0x33,0x21,0x11,0x0,0x11,0x24
        BA 98 76 54 33 21
        11 00 11 24
   0CA0 FC EC CB BB BA A9   206 .DB 0xFC,0xEC,0xCB,0xBB,0xBA,0xA9,0x98,0x88,0x77,0x76,0x65,0x55,0x44,0x43,0x32,0x30
        98 88 77 76 65 55
        44 43 32 30
   0CB0 FE CD CB CB AA A9   207 .DB 0xFE,0xCD,0xCB,0xCB,0xAA,0xA9,0x99,0x88,0x77,0x76,0x65,0x55,0x43,0x43,0x23,0x10
        99 88 77 76 65 55
        43 43 23 10
   0CC0 EF DB BC DB A9 AA   208 .DB 0xEF,0xDB,0xBC,0xDB,0xA9,0xAA,0x98,0x77,0x88,0x76,0x55,0x65,0x43,0x34,0x42,0x1
        98 77 88 76 55 65
        43 34 42 01
   0CD0 CF FE CA 99 AA AA   209 .DB 0xCF,0xFE,0xCA,0x99,0xAA,0xAA,0x99,0x88,0x77,0x76,0x55,0x56,0x66,0x54,0x10,0x3
        99 88 77 76 55 56
        66 54 10 03
   0CE0 BE FF ED BA 98 88   210 .DB 0xBE,0xFF,0xED,0xBA,0x98,0x88,0x88,0x88,0x87,0x77,0x77,0x76,0x54,0x31,0x0,0x14
        88 88 87 77 77 76
        54 31 00 14
   0CF0 CE FF FF FE ED CC   211 .DB 0xCE,0xFF,0xFF,0xFE,0xED,0xCC,0xBA,0x98,0x76,0x54,0x33,0x21,0x10,0x0,0x0,0x13
        BA 98 76 54 33 21
        10 00 00 13
   0D00 00 00 00 00 00 00   212 .DB 0x0,0x0,0x0,0x0,0x0,0x0,0x0,0x0,0x0,0x0,0x0,0x0,0x0,0x0,0x0,0x0
        00 00 00 00 00 00
        00 00 00 00
   0D10 F2 F2 00 00 00 00   213 .DB 0xF2,0xF2,0x0,0x0,0x0,0x0,0x0,0x0,0x0,0x0,0x0,0x0,0x0,0x0,0x0,0x0
        00 00 00 00 00 00
        00 00 00 00
   0D20 00 00 00 00 00 00   214 .DB 0x0,0x0,0x0,0x0,0x0,0x0,0x0,0x0,0x0,0x0,0x0,0x0,0x0,0x0,0x0,0x0
        00 00 00 00 00 00
        00 00 00 00
   0D30 00 00 00 00 00 00   215 .DB 0x0,0x0,0x0,0x0,0x0,0x0,0x0,0x0,0x0,0x0,0x0,0x0,0x0,0x0,0x0,0x0
        00 00 00 00 00 00
        00 00 00 00
   0D40 00 00 00 00 00 00   216 .DB 0x0,0x0,0x0,0x0,0x0,0x0,0x0,0x0,0x0,0x0,0x0,0x0,0x0,0x0,0x0,0x0
        00 00 00 00 00 00
        00 00 00 00
   0D50 00 00 00 00 00 00   217 .DB 0x0,0x0,0x0,0x0,0x0,0x0,0x0,0x0,0x0,0x0,0x0,0x0,0x0,0x0,0x0,0x0
        00 00 00 00 00 00
        00 00 00 00
   0D60 F3 00 00 00 00 00   218 .DB 0xF3,0x0,0x0,0x0,0x0,0x0,0x0,0x0,0x0,0x0,0x0,0x0,0x0,0x0,0x0,0x0
        00 00 00 00 00 00
        00 00 00 00
   0D70 00 00 00 00 00 00   219 .DB 0x0,0x0,0x0,0x0,0x0,0x0,0x0,0x0,0x0,0x0,0x0,0x0,0x0,0x0,0x0,0x0
        00 00 00 00 00 00
        00 00 00 00
   0D80 F1 31 00 00 00 00   220 .DB 0xF1,0x31,0x0,0x0,0x0,0x0,0x0,0x0,0x0,0x0,0x0,0x0,0x0,0x0,0x0,0x0
        00 00 00 00 00 00
        00 00 00 00
   0D90 F2 72 00 00 00 00   221 .DB 0xF2,0x72,0x0,0x0,0x0,0x0,0x0,0x0,0x0,0x0,0x0,0x0,0x0,0x0,0x0,0x0
        00 00 00 00 00 00
        00 00 00 00
   0DA0 00 00 00 00 00 00   222 .DB 0x0,0x0,0x0,0x0,0x0,0x0,0x0,0x0,0x0,0x0,0x0,0x0,0x0,0x0,0x0,0x0
        00 00 00 00 00 00
        00 00 00 00
   0DB0 00 00 00 00 00 00   223 .DB 0x0,0x0,0x0,0x0,0x0,0x0,0x0,0x0,0x0,0x0,0x0,0x0,0x0,0x0,0x0,0x0
        00 00 00 00 00 00
        00 00 00 00
   0DC0 00 00 00 00 00 00   224 .DB 0x0,0x0,0x0,0x0,0x0,0x0,0x0,0x0,0x0,0x0,0x0,0x0,0x0,0x0,0x0,0x0
        00 00 00 00 00 00
        00 00 00 00
   0DD0 00 00 00 00 00 00   225 .DB 0x0,0x0,0x0,0x0,0x0,0x0,0x0,0x0,0x0,0x0,0x0,0x0,0x0,0x0,0x0,0x0
        00 00 00 00 00 00
        00 00 00 00
   0DE0 00 00 00 00 00 00   226 .DB 0x0,0x0,0x0,0x0,0x0,0x0,0x0,0x0,0x0,0x0,0x0,0x0,0x0,0x0,0x0,0x0
        00 00 00 00 00 00
        00 00 00 00
   0DF0 00 00 00 00 00 00   227 .DB 0x0,0x0,0x0,0x0,0x0,0x0,0x0,0x0,0x0,0x0,0x0,0x0,0x0,0x0,0x0,0x0
        00 00 00 00 00 00
        00 00 00 00
   0E00 FF FF FF FF FF FF   228 .DB 0xFF,0xFF,0xFF,0xFF,0xFF,0xFF,0xFF,0xFF,0xFF,0xFF,0xFF,0xFF,0xFF,0xFF,0xFF,0xFF
        FF FF FF FF FF FF
        FF FF FF FF
   0E10 47 42 FF FF FF FF   229 .DB 0x47,0x42,0xFF,0xFF,0xFF,0xFF,0xFF,0xFF,0xFF,0xFF,0xFF,0xFF,0xFF,0xFF,0xFF,0xFF
        FF FF FF FF FF FF
        FF FF FF FF
   0E20 FF FF FF FF FF FF   230 .DB 0xFF,0xFF,0xFF,0xFF,0xFF,0xFF,0xFF,0xFF,0xFF,0xFF,0xFF,0xFF,0xFF,0xFF,0xFF,0xFF
        FF FF FF FF FF FF
        FF FF FF FF
   0E30 FF FF FF FF FF FF   231 .DB 0xFF,0xFF,0xFF,0xFF,0xFF,0xFF,0xFF,0xFF,0xFF,0xFF,0xFF,0xFF,0xFF,0xFF,0xFF,0xFF
        FF FF FF FF FF FF
        FF FF FF FF
   0E40 FF FF FF FF FF FF   232 .DB 0xFF,0xFF,0xFF,0xFF,0xFF,0xFF,0xFF,0xFF,0xFF,0xFF,0xFF,0xFF,0xFF,0xFF,0xFF,0xFF
        FF FF FF FF FF FF
        FF FF FF FF
   0E50 FF FF FF FF FF FF   233 .DB 0xFF,0xFF,0xFF,0xFF,0xFF,0xFF,0xFF,0xFF,0xFF,0xFF,0xFF,0xFF,0xFF,0xFF,0xFF,0xFF
        FF FF FF FF FF FF
        FF FF FF FF
   0E60 57 FF FF FF FF FF   234 .DB 0x57,0xFF,0xFF,0xFF,0xFF,0xFF,0xFF,0xFF,0xFF,0xFF,0xFF,0xFF,0xFF,0xFF,0xFF,0xFF
        FF FF FF FF FF FF
        FF FF FF FF
   0E70 FF FF FF FF FF FF   235 .DB 0xFF,0xFF,0xFF,0xFF,0xFF,0xFF,0xFF,0xFF,0xFF,0xFF,0xFF,0xFF,0xFF,0xFF,0xFF,0xFF
        FF FF FF FF FF FF
        FF FF FF FF
   0E80 11 11 FF FF FF FF   236 .DB 0x11,0x11,0xFF,0xFF,0xFF,0xFF,0xFF,0xFF,0xFF,0xFF,0xFF,0xFF,0xFF,0xFF,0xFF,0xFF
        FF FF FF FF FF FF
        FF FF FF FF
   0E90 11 17 FF FF FF FF   237 .DB 0x11,0x17,0xFF,0xFF,0xFF,0xFF,0xFF,0xFF,0xFF,0xFF,0xFF,0xFF,0xFF,0xFF,0xFF,0xFF
        FF FF FF FF FF FF
        FF FF FF FF
   0EA0 FF FF FF FF FF FF   238 .DB 0xFF,0xFF,0xFF,0xFF,0xFF,0xFF,0xFF,0xFF,0xFF,0xFF,0xFF,0xFF,0xFF,0xFF,0xFF,0xFF
        FF FF FF FF FF FF
        FF FF FF FF
   0EB0 FF FF FF FF FF FF   239 .DB 0xFF,0xFF,0xFF,0xFF,0xFF,0xFF,0xFF,0xFF,0xFF,0xFF,0xFF,0xFF,0xFF,0xFF,0xFF,0xFF
        FF FF FF FF FF FF
        FF FF FF FF
   0EC0 FF FF FF FF FF FF   240 .DB 0xFF,0xFF,0xFF,0xFF,0xFF,0xFF,0xFF,0xFF,0xFF,0xFF,0xFF,0xFF,0xFF,0xFF,0xFF,0xFF
        FF FF FF FF FF FF
        FF FF FF FF
   0ED0 FF FF FF FF FF FF   241 .DB 0xFF,0xFF,0xFF,0xFF,0xFF,0xFF,0xFF,0xFF,0xFF,0xFF,0xFF,0xFF,0xFF,0xFF,0xFF,0xFF
        FF FF FF FF FF FF
        FF FF FF FF
   0EE0 FF FF FF FF FF FF   242 .DB 0xFF,0xFF,0xFF,0xFF,0xFF,0xFF,0xFF,0xFF,0xFF,0xFF,0xFF,0xFF,0xFF,0xFF,0xFF,0xFF
        FF FF FF FF FF FF
        FF FF FF FF
   0EF0 FF FF FF FF FF FF   243 .DB 0xFF,0xFF,0xFF,0xFF,0xFF,0xFF,0xFF,0xFF,0xFF,0xFF,0xFF,0xFF,0xFF,0xFF,0xFF,0xFF
        FF FF FF FF FF FF
        FF FF FF FF
   0F00 53 54 50 51 52 51   244 .DB 0x53,0x54,0x50,0x51,0x52,0x51,0x50,0x51,0x52,0x51,0x57,0x58,0x55,0x56,0x55,0x56
        50 51 52 51 57 58
        55 56 55 56
   0F10 5B 59 5A 5C 5A 5D   245 .DB 0x5B,0x59,0x5A,0x5C,0x5A,0x5D,0x5D,0x5E,0x5F,0x60,0x61,0x62,0x63,0x63,0x64,0x0
        5D 5E 5F 60 61 62
        63 63 64 00
   0F20 02 00 00 00 00 00   246 .DB 0x2,0x0,0x0,0x0,0x0,0x0,0x0,0x0,0x0,0x0,0x0,0x0,0x0,0x0,0x0,0x0
        00 00 00 00 00 00
        00 00 00 00
   0F30 00 00 00 00 00 00   247 .DB 0x0,0x0,0x0,0x0,0x0,0x0,0x0,0x0,0x0,0x0,0x0,0x0,0x0,0x0,0x0,0x0
        00 00 00 00 00 00
        00 00 00 00
   0F40 00 00 00 00 00 00   248 .DB 0x0,0x0,0x0,0x0,0x0,0x0,0x0,0x0,0x0,0x0,0x0,0x0,0x0,0x0,0x0,0x0
        00 00 00 00 00 00
        00 00 00 00
   0F50 00 00 00 00 00 00   249 .DB 0x0,0x0,0x0,0x0,0x0,0x0,0x0,0x0,0x0,0x0,0x0,0x0,0x0,0x0,0x0,0x0
        00 00 00 00 00 00
        00 00 00 00
   0F60 00 00 00 00 00 00   250 .DB 0x0,0x0,0x0,0x0,0x0,0x0,0x0,0x0,0x0,0x0,0x0,0x0,0x0,0x0,0x0,0x0
        00 00 00 00 00 00
        00 00 00 00
   0F70 00 00 00 00 00 00   251 .DB 0x0,0x0,0x0,0x0,0x0,0x0,0x0,0x0,0x0,0x0,0x0,0x0,0x0,0x0,0x0,0x0
        00 00 00 00 00 00
        00 00 00 00
   0F80 65 66 65 66 67 68   252 .DB 0x65,0x66,0x65,0x66,0x67,0x68,0x0,0x80,0x0,0x0,0x0,0x0,0x0,0x0,0x0,0x0
        00 80 00 00 00 00
        00 00 00 00
   0F90 00 00 00 00 00 00   253 .DB 0x0,0x0,0x0,0x0,0x0,0x0,0x0,0x0,0x0,0x0,0x0,0x0,0x0,0x0,0x0,0x0
        00 00 00 00 00 00
        00 00 00 00
   0FA0 00 00 00 00 00 00   254 .DB 0x0,0x0,0x0,0x0,0x0,0x0,0x0,0x0,0x0,0x0,0x0,0x0,0x0,0x0,0x0,0x0
        00 00 00 00 00 00
        00 00 00 00
   0FB0 00 00 00 00 00 00   255 .DB 0x0,0x0,0x0,0x0,0x0,0x0,0x0,0x0,0x0,0x0,0x0,0x0,0x0,0x0,0x0,0x0
        00 00 00 00 00 00
        00 00 00 00
   0FC0 00 00 00 00 00 00   256 .DB 0x0,0x0,0x0,0x0,0x0,0x0,0x0,0x0,0x0,0x0,0x0,0x0,0x0,0x0,0x0,0x0
        00 00 00 00 00 00
        00 00 00 00
   0FD0 00 00 00 00 00 00   257 .DB 0x0,0x0,0x0,0x0,0x0,0x0,0x0,0x0,0x0,0x0,0x0,0x0,0x0,0x0,0x0,0x0
        00 00 00 00 00 00
        00 00 00 00
   0FE0 00 00 00 00 00 00   258 .DB 0x0,0x0,0x0,0x0,0x0,0x0,0x0,0x0,0x0,0x0,0x0,0x0,0x0,0x0,0x0,0x0
        00 00 00 00 00 00
        00 00 00 00
   0FF0 00 00 00 00 00 00   259 .DB 0x0,0x0,0x0,0x0,0x0,0x0,0x0,0x0,0x0,0x0,0x0,0x0,0x0,0x0,0x0,0x0
        00 00 00 00 00 00
        00 00 00 00
   1000 30 30 30 10 80 30   260 .DB 0x30,0x30,0x30,0x10,0x80,0x30,0x61,0x7C,0x48,0x60,0x0,0x0,0x0,0x0,0x0,0x0
        61 7C 48 60 00 00
        00 00 00 00
   1010 30 30 4C 40 86 30   261 .DB 0x30,0x30,0x4C,0x40,0x86,0x30,0x81,0x0,0x0,0x0,0x0,0x0,0x0,0x0,0x0,0x0
        81 00 00 00 00 00
        00 00 00 00
   1020 30 30 3C 10 80 30   262 .DB 0x30,0x30,0x3C,0x10,0x80,0x30,0x11,0x0,0x0,0x0,0x0,0x0,0x0,0x0,0x0,0x0
        11 00 00 00 00 00
        00 00 00 00
   1030 30 30 3C 10 7C 30   263 .DB 0x30,0x30,0x3C,0x10,0x7C,0x30,0x11,0x0,0x0,0x0,0x0,0x0,0x0,0x0,0x0,0x0
        11 00 00 00 00 00
        00 00 00 00
   1040 26 30 30 10 78 30   264 .DB 0x26,0x30,0x30,0x10,0x78,0x30,0x61,0x0,0x0,0x0,0x0,0x0,0x0,0x0,0x0,0x0
        61 00 00 00 00 00
        00 00 00 00
   1050 26 30 4C 40 00 00   265 .DB 0x26,0x30,0x4C,0x40,0x0,0x0,0x81,0x0,0x0,0x0,0x0,0x0,0x0,0x0,0x0,0x0
        81 00 00 00 00 00
        00 00 00 00
   1060 26 30 3C 10 6E 30   266 .DB 0x26,0x30,0x3C,0x10,0x6E,0x30,0x11,0x0,0x0,0x0,0x0,0x0,0x0,0x0,0x0,0x0
        11 00 00 00 00 00
        00 00 00 00
   1070 26 30 4C 40 72 30   267 .DB 0x26,0x30,0x4C,0x40,0x72,0x30,0x81,0x0,0x0,0x0,0x0,0x0,0x0,0x0,0x0,0x0
        81 00 00 00 00 00
        00 00 00 00
   1080 22 30 30 10 00 00   268 .DB 0x22,0x30,0x30,0x10,0x0,0x0,0x61,0x0,0x0,0x0,0x0,0x0,0x0,0x0,0x0,0x0
        61 00 00 00 00 00
        00 00 00 00
   1090 22 30 4C 50 78 30   269 .DB 0x22,0x30,0x4C,0x50,0x78,0x30,0x81,0x0,0x0,0x0,0x0,0x0,0x0,0x0,0x0,0x0
        81 00 00 00 00 00
        00 00 00 00
   10A0 22 30 3C 10 72 30   270 .DB 0x22,0x30,0x3C,0x10,0x72,0x30,0x11,0x0,0x0,0x0,0x0,0x0,0x6E,0x30,0x0,0x0
        11 00 00 00 00 00
        6E 30 00 00
   10B0 22 30 3C 10 6A 30   271 .DB 0x22,0x30,0x3C,0x10,0x6A,0x30,0x11,0x0,0x0,0x0,0x0,0x0,0x0,0x0,0x0,0x0
        11 00 00 00 00 00
        00 00 00 00
   10C0 30 30 30 10 68 30   272 .DB 0x30,0x30,0x30,0x10,0x68,0x30,0x61,0x0,0x0,0x0,0x0,0x0,0x0,0x0,0x0,0x0
        61 00 00 00 00 00
        00 00 00 00
   10D0 30 30 4C 50 6A 30   273 .DB 0x30,0x30,0x4C,0x50,0x6A,0x30,0x81,0x0,0x0,0x0,0x0,0x0,0x0,0x0,0x0,0x0
        81 00 00 00 00 00
        00 00 00 00
   10E0 30 30 3C 10 00 00   274 .DB 0x30,0x30,0x3C,0x10,0x0,0x0,0x11,0x0,0x0,0x0,0x0,0x0,0x0,0x0,0x0,0x0
        11 00 00 00 00 00
        00 00 00 00
   10F0 30 30 4C 40 60 30   275 .DB 0x30,0x30,0x4C,0x40,0x60,0x30,0x81,0x0,0x0,0x0,0x0,0x0,0x0,0x0,0x0,0x0
        81 00 00 00 00 00
        00 00 00 00
   1100 30 30 30 10 68 30   276 .DB 0x30,0x30,0x30,0x10,0x68,0x30,0x61,0x7C,0x0,0x0,0x0,0x0,0x0,0x0,0x0,0x0
        61 7C 00 00 00 00
        00 00 00 00
   1110 30 30 4C 40 00 00   277 .DB 0x30,0x30,0x4C,0x40,0x0,0x0,0x81,0x0,0x0,0x0,0x0,0x0,0x0,0x0,0x0,0x0
        81 00 00 00 00 00
        00 00 00 00
   1120 30 30 3C 10 68 30   278 .DB 0x30,0x30,0x3C,0x10,0x68,0x30,0x11,0x0,0x0,0x0,0x0,0x0,0x0,0x0,0x0,0x0
        11 00 00 00 00 00
        00 00 00 00
   1130 30 30 3C 10 60 30   279 .DB 0x30,0x30,0x3C,0x10,0x60,0x30,0x11,0x0,0x0,0x0,0x0,0x0,0x0,0x0,0x0,0x0
        11 00 00 00 00 00
        00 00 00 00
   1140 26 30 30 10 68 30   280 .DB 0x26,0x30,0x30,0x10,0x68,0x30,0x61,0x0,0x0,0x0,0x0,0x0,0x0,0x0,0x0,0x0
        61 00 00 00 00 00
        00 00 00 00
   1150 26 30 4C 40 6A 30   281 .DB 0x26,0x30,0x4C,0x40,0x6A,0x30,0x81,0x0,0x0,0x0,0x0,0x0,0x0,0x0,0x0,0x0
        81 00 00 00 00 00
        00 00 00 00
   1160 26 30 3C 10 6C 30   282 .DB 0x26,0x30,0x3C,0x10,0x6C,0x30,0x11,0x0,0x0,0x0,0x0,0x0,0x0,0x0,0x0,0x0
        11 00 00 00 00 00
        00 00 00 00
   1170 26 30 4C 40 6E 30   283 .DB 0x26,0x30,0x4C,0x40,0x6E,0x30,0x81,0x0,0x0,0x0,0x0,0x0,0x0,0x0,0x0,0x0
        81 00 00 00 00 00
        00 00 00 00
   1180 30 30 30 10 68 60   284 .DB 0x30,0x30,0x30,0x10,0x68,0x60,0x61,0x0,0x0,0x0,0x0,0x0,0x0,0x0,0x0,0x0
        61 00 00 00 00 00
        00 00 00 00
   1190 30 30 4C 40 6A 60   285 .DB 0x30,0x30,0x4C,0x40,0x6A,0x60,0x81,0x0,0x0,0x0,0x0,0x0,0x0,0x0,0x0,0x0
        81 00 00 00 00 00
        00 00 00 00
   11A0 30 30 3C 10 6C 60   286 .DB 0x30,0x30,0x3C,0x10,0x6C,0x60,0x11,0x0,0x0,0x0,0x0,0x0,0x0,0x0,0x0,0x0
        11 00 00 00 00 00
        00 00 00 00
   11B0 48 30 3C 10 6E 60   287 .DB 0x48,0x30,0x3C,0x10,0x6E,0x60,0x11,0x0,0x0,0x0,0x0,0x0,0x0,0x0,0x0,0x0
        11 00 00 00 00 00
        00 00 00 00
   11C0 00 00 30 10 00 00   288 .DB 0x0,0x0,0x30,0x10,0x0,0x0,0x61,0x0,0x0,0x0,0x0,0x0,0x0,0x0,0x0,0x0
        61 00 00 00 00 00
        00 00 00 00
   11D0 3E 30 4C 40 00 00   289 .DB 0x3E,0x30,0x4C,0x40,0x0,0x0,0x81,0x0,0x0,0x0,0x0,0x0,0x0,0x0,0x0,0x0
        81 00 00 00 00 00
        00 00 00 00
   11E0 30 30 3C 10 00 00   290 .DB 0x30,0x30,0x3C,0x10,0x0,0x0,0x11,0x0,0x0,0x0,0x0,0x0,0x0,0x0,0x0,0x0
        11 00 00 00 00 00
        00 00 00 00
   11F0 00 00 4C 40 00 00   291 .DB 0x0,0x0,0x4C,0x40,0x0,0x0,0x81,0x0,0x0,0x0,0x0,0x0,0x0,0x0,0x0,0x0
        81 00 00 00 00 00
        00 00 00 00
   1200 22 30 30 10 7E 30   292 .DB 0x22,0x30,0x30,0x10,0x7E,0x30,0x61,0x7C,0x0,0x0,0x0,0x0,0x0,0x0,0x0,0x0
        61 7C 00 00 00 00
        00 00 00 00
   1210 22 30 56 40 00 00   293 .DB 0x22,0x30,0x56,0x40,0x0,0x0,0x81,0x0,0x0,0x0,0x0,0x0,0x86,0x30,0x0,0x0
        81 00 00 00 00 00
        86 30 00 00
   1220 22 30 3C 10 7E 30   294 .DB 0x22,0x30,0x3C,0x10,0x7E,0x30,0x11,0x0,0x0,0x0,0x0,0x0,0x0,0x0,0x0,0x0
        11 00 00 00 00 00
        00 00 00 00
   1230 22 30 3C 10 78 30   295 .DB 0x22,0x30,0x3C,0x10,0x78,0x30,0x11,0x0,0x0,0x0,0x0,0x0,0x0,0x0,0x0,0x0
        11 00 00 00 00 00
        00 00 00 00
   1240 30 30 30 10 72 30   296 .DB 0x30,0x30,0x30,0x10,0x72,0x30,0x61,0x0,0x0,0x0,0x0,0x0,0x0,0x0,0x0,0x0
        61 00 00 00 00 00
        00 00 00 00
   1250 30 30 56 40 00 00   297 .DB 0x30,0x30,0x56,0x40,0x0,0x0,0x81,0x0,0x0,0x0,0x0,0x0,0x0,0x0,0x0,0x0
        81 00 00 00 00 00
        00 00 00 00
   1260 30 30 3C 10 6A 30   298 .DB 0x30,0x30,0x3C,0x10,0x6A,0x30,0x11,0x0,0x0,0x0,0x0,0x0,0x0,0x0,0x0,0x0
        11 00 00 00 00 00
        00 00 00 00
   1270 30 30 56 40 72 30   299 .DB 0x30,0x30,0x56,0x40,0x72,0x30,0x81,0x0,0x0,0x0,0x0,0x0,0x0,0x0,0x0,0x0
        81 00 00 00 00 00
        00 00 00 00
   1280 22 30 30 10 00 00   300 .DB 0x22,0x30,0x30,0x10,0x0,0x0,0x61,0x0,0x0,0x0,0x0,0x0,0x0,0x0,0x0,0x0
        61 00 00 00 00 00
        00 00 00 00
   1290 22 30 56 40 78 30   301 .DB 0x22,0x30,0x56,0x40,0x78,0x30,0x81,0x0,0x0,0x0,0x0,0x0,0x0,0x0,0x0,0x0
        81 00 00 00 00 00
        00 00 00 00
   12A0 22 30 3C 10 72 30   302 .DB 0x22,0x30,0x3C,0x10,0x72,0x30,0x11,0x0,0x0,0x0,0x0,0x0,0x0,0x0,0x0,0x0
        11 00 00 00 00 00
        00 00 00 00
   12B0 22 30 3C 10 6E 30   303 .DB 0x22,0x30,0x3C,0x10,0x6E,0x30,0x11,0x0,0x0,0x0,0x0,0x0,0x0,0x0,0x0,0x0
        11 00 00 00 00 00
        00 00 00 00
   12C0 30 30 30 10 6A 30   304 .DB 0x30,0x30,0x30,0x10,0x6A,0x30,0x61,0x0,0x0,0x0,0x0,0x0,0x0,0x0,0x0,0x0
        61 00 00 00 00 00
        00 00 00 00
   12D0 30 30 56 40 72 30   305 .DB 0x30,0x30,0x56,0x40,0x72,0x30,0x81,0x0,0x0,0x0,0x0,0x0,0x0,0x0,0x0,0x0
        81 00 00 00 00 00
        00 00 00 00
   12E0 30 30 3C 10 6A 30   306 .DB 0x30,0x30,0x3C,0x10,0x6A,0x30,0x11,0x0,0x0,0x0,0x0,0x0,0x0,0x0,0x0,0x0
        11 00 00 00 00 00
        00 00 00 00
   12F0 30 30 56 40 00 00   307 .DB 0x30,0x30,0x56,0x40,0x0,0x0,0x81,0x0,0x0,0x0,0x0,0x0,0x0,0x0,0x0,0x0
        81 00 00 00 00 00
        00 00 00 00
   1300 00 00 30 10 00 00   308 .DB 0x0,0x0,0x30,0x10,0x0,0x0,0x61,0x7C,0x0,0x0,0x0,0x0,0x0,0x0,0x0,0x0
        61 7C 00 00 00 00
        00 00 00 00
   1310 00 00 00 00 00 00   309 .DB 0x0,0x0,0x0,0x0,0x0,0x0,0x81,0x0,0x0,0x0,0x0,0x0,0x0,0x0,0x0,0x0
        81 00 00 00 00 00
        00 00 00 00
   1320 00 00 3C 10 00 00   310 .DB 0x0,0x0,0x3C,0x10,0x0,0x0,0x11,0x0,0x0,0x0,0x0,0x0,0x0,0x0,0x0,0x0
        11 00 00 00 00 00
        00 00 00 00
   1330 00 00 3C 10 00 00   311 .DB 0x0,0x0,0x3C,0x10,0x0,0x0,0x11,0x0,0x0,0x0,0x0,0x0,0x0,0x0,0x0,0x0
        11 00 00 00 00 00
        00 00 00 00
   1340 00 00 30 10 00 00   312 .DB 0x0,0x0,0x30,0x10,0x0,0x0,0x61,0x0,0x0,0x0,0x0,0x0,0x0,0x0,0x0,0x0
        61 00 00 00 00 00
        00 00 00 00
   1350 00 00 00 00 00 00   313 .DB 0x0,0x0,0x0,0x0,0x0,0x0,0x81,0x0,0x0,0x0,0x0,0x0,0x0,0x0,0x0,0x0
        81 00 00 00 00 00
        00 00 00 00
   1360 00 00 3C 10 00 00   314 .DB 0x0,0x0,0x3C,0x10,0x0,0x0,0x11,0x0,0x0,0x0,0x0,0x0,0x0,0x0,0x0,0x0
        11 00 00 00 00 00
        00 00 00 00
   1370 00 00 00 00 00 00   315 .DB 0x0,0x0,0x0,0x0,0x0,0x0,0x81,0x0,0x0,0x0,0x0,0x0,0x0,0x0,0x0,0x0
        81 00 00 00 00 00
        00 00 00 00
   1380 00 00 30 10 00 00   316 .DB 0x0,0x0,0x30,0x10,0x0,0x0,0x61,0x0,0x0,0x0,0x0,0x0,0x0,0x0,0x0,0x0
        61 00 00 00 00 00
        00 00 00 00
   1390 00 00 00 00 00 00   317 .DB 0x0,0x0,0x0,0x0,0x0,0x0,0x81,0x0,0x0,0x0,0x0,0x0,0x0,0x0,0x0,0x0
        81 00 00 00 00 00
        00 00 00 00
   13A0 00 00 3C 10 00 00   318 .DB 0x0,0x0,0x3C,0x10,0x0,0x0,0x11,0x0,0x0,0x0,0x0,0x0,0x0,0x0,0x0,0x0
        11 00 00 00 00 00
        00 00 00 00
   13B0 00 00 3C 10 00 00   319 .DB 0x0,0x0,0x3C,0x10,0x0,0x0,0x11,0x0,0x0,0x0,0x0,0x0,0x0,0x0,0x0,0x0
        11 00 00 00 00 00
        00 00 00 00
   13C0 00 00 30 10 00 00   320 .DB 0x0,0x0,0x30,0x10,0x0,0x0,0x61,0x0,0x0,0x0,0x0,0x0,0x0,0x0,0x0,0x0
        61 00 00 00 00 00
        00 00 00 00
   13D0 00 00 00 00 00 00   321 .DB 0x0,0x0,0x0,0x0,0x0,0x0,0x81,0x0,0x0,0x0,0x0,0x0,0x0,0x0,0x0,0x0
        81 00 00 00 00 00
        00 00 00 00
   13E0 00 00 3C 10 00 00   322 .DB 0x0,0x0,0x3C,0x10,0x0,0x0,0x11,0x0,0x0,0x0,0x0,0x0,0x0,0x0,0x0,0x0
        11 00 00 00 00 00
        00 00 00 00
   13F0 00 00 00 00 00 00   323 .DB 0x0,0x0,0x0,0x0,0x0,0x0,0x81,0x0,0x0,0x0,0x0,0x0,0x0,0x0,0x0,0x0
        81 00 00 00 00 00
        00 00 00 00
   1400 00 00 30 10 00 00   324 .DB 0x0,0x0,0x30,0x10,0x0,0x0,0x61,0x7C,0x0,0x0,0x0,0x0,0x0,0x0,0x0,0x0
        61 7C 00 00 00 00
        00 00 00 00
   1410 00 00 00 00 00 00   325 .DB 0x0,0x0,0x0,0x0,0x0,0x0,0x81,0x0,0x0,0x0,0x0,0x0,0x0,0x0,0x0,0x0
        81 00 00 00 00 00
        00 00 00 00
   1420 00 00 3C 10 00 00   326 .DB 0x0,0x0,0x3C,0x10,0x0,0x0,0x11,0x0,0x0,0x0,0x0,0x0,0x0,0x0,0x0,0x0
        11 00 00 00 00 00
        00 00 00 00
   1430 00 00 3C 10 00 00   327 .DB 0x0,0x0,0x3C,0x10,0x0,0x0,0x11,0x0,0x0,0x0,0x0,0x0,0x0,0x0,0x0,0x0
        11 00 00 00 00 00
        00 00 00 00
   1440 00 00 30 10 00 00   328 .DB 0x0,0x0,0x30,0x10,0x0,0x0,0x61,0x0,0x0,0x0,0x0,0x0,0x0,0x0,0x0,0x0
        61 00 00 00 00 00
        00 00 00 00
   1450 00 00 00 00 00 00   329 .DB 0x0,0x0,0x0,0x0,0x0,0x0,0x81,0x0,0x0,0x0,0x0,0x0,0x0,0x0,0x0,0x0
        81 00 00 00 00 00
        00 00 00 00
   1460 00 00 3C 10 00 00   330 .DB 0x0,0x0,0x3C,0x10,0x0,0x0,0x11,0x0,0x0,0x0,0x0,0x0,0x0,0x0,0x0,0x0
        11 00 00 00 00 00
        00 00 00 00
   1470 00 00 00 00 00 00   331 .DB 0x0,0x0,0x0,0x0,0x0,0x0,0x81,0x0,0x0,0x0,0x0,0x0,0x0,0x0,0x0,0x0
        81 00 00 00 00 00
        00 00 00 00
   1480 00 00 30 10 00 00   332 .DB 0x0,0x0,0x30,0x10,0x0,0x0,0x61,0x0,0x0,0x0,0x0,0x0,0x0,0x0,0x0,0x0
        61 00 00 00 00 00
        00 00 00 00
   1490 3E 30 00 00 00 00   333 .DB 0x3E,0x30,0x0,0x0,0x0,0x0,0x81,0x0,0x0,0x0,0x0,0x0,0x0,0x0,0x0,0x0
        81 00 00 00 00 00
        00 00 00 00
   14A0 3E 30 3C 10 86 30   334 .DB 0x3E,0x30,0x3C,0x10,0x86,0x30,0x11,0x0,0x0,0x0,0x0,0x0,0x0,0x0,0x0,0x0
        11 00 00 00 00 00
        00 00 00 00
   14B0 3E 30 3C 10 00 00   335 .DB 0x3E,0x30,0x3C,0x10,0x0,0x0,0x11,0x0,0x0,0x0,0x0,0x0,0x0,0x0,0x0,0x0
        11 00 00 00 00 00
        00 00 00 00
   14C0 3E 30 30 10 86 30   336 .DB 0x3E,0x30,0x30,0x10,0x86,0x30,0x61,0x0,0x0,0x0,0x0,0x0,0x0,0x0,0x0,0x0
        61 00 00 00 00 00
        00 00 00 00
   14D0 3E 30 48 80 00 00   337 .DB 0x3E,0x30,0x48,0x80,0x0,0x0,0x81,0x0,0x0,0x0,0x50,0x80,0x0,0x0,0x0,0x0
        81 00 00 00 50 80
        00 00 00 00
   14E0 3E 30 54 80 86 30   338 .DB 0x3E,0x30,0x54,0x80,0x86,0x30,0x11,0x0,0x0,0x0,0x58,0x80,0x0,0x0,0x0,0x0
        11 00 00 00 58 80
        00 00 00 00
   14F0 3E 30 5C 80 7E 30   339 .DB 0x3E,0x30,0x5C,0x80,0x7E,0x30,0x81,0x0,0x0,0x0,0x60,0x80,0x0,0x0,0x0,0x0
        81 00 00 00 60 80
        00 00 00 00
   1500 22 30 30 10 78 70   340 .DB 0x22,0x30,0x30,0x10,0x78,0x70,0x61,0x7C,0x0,0x0,0x0,0x0,0x0,0x0,0x0,0x0
        61 7C 00 00 00 00
        00 00 00 00
   1510 52 60 52 70 78 70   341 .DB 0x52,0x60,0x52,0x70,0x78,0x70,0x81,0x0,0x0,0x0,0x0,0x0,0x0,0x0,0x0,0x0
        81 00 00 00 00 00
        00 00 00 00
   1520 52 60 3C 10 78 70   342 .DB 0x52,0x60,0x3C,0x10,0x78,0x70,0x11,0x0,0x0,0x0,0x0,0x0,0x0,0x0,0x0,0x0
        11 00 00 00 00 00
        00 00 00 00
   1530 2A 30 52 70 78 70   343 .DB 0x2A,0x30,0x52,0x70,0x78,0x70,0x11,0x0,0x0,0x0,0x0,0x0,0x0,0x0,0x0,0x0
        11 00 00 00 00 00
        00 00 00 00
   1540 52 60 30 10 78 70   344 .DB 0x52,0x60,0x30,0x10,0x78,0x70,0x61,0x0,0x0,0x0,0x0,0x0,0x0,0x0,0x0,0x0
        61 00 00 00 00 00
        00 00 00 00
   1550 30 30 52 70 78 70   345 .DB 0x30,0x30,0x52,0x70,0x78,0x70,0x81,0x0,0x0,0x0,0x0,0x0,0x0,0x0,0x0,0x0
        81 00 00 00 00 00
        00 00 00 00
   1560 34 30 3C 10 78 70   346 .DB 0x34,0x30,0x3C,0x10,0x78,0x70,0x11,0x0,0x0,0x0,0x0,0x0,0x0,0x0,0x0,0x0
        11 00 00 00 00 00
        00 00 00 00
   1570 30 30 52 70 78 70   347 .DB 0x30,0x30,0x52,0x70,0x78,0x70,0x81,0x0,0x0,0x0,0x0,0x0,0x0,0x0,0x0,0x0
        81 00 00 00 00 00
        00 00 00 00
   1580 22 30 30 10 78 70   348 .DB 0x22,0x30,0x30,0x10,0x78,0x70,0x61,0x0,0x0,0x0,0x0,0x0,0x0,0x0,0x0,0x0
        61 00 00 00 00 00
        00 00 00 00
   1590 52 60 52 70 78 70   349 .DB 0x52,0x60,0x52,0x70,0x78,0x70,0x81,0x0,0x0,0x0,0x0,0x0,0x0,0x0,0x0,0x0
        81 00 00 00 00 00
        00 00 00 00
   15A0 52 60 3C 10 78 70   350 .DB 0x52,0x60,0x3C,0x10,0x78,0x70,0x11,0x0,0x0,0x0,0x0,0x0,0x0,0x0,0x0,0x0
        11 00 00 00 00 00
        00 00 00 00
   15B0 2A 30 3C 10 78 70   351 .DB 0x2A,0x30,0x3C,0x10,0x78,0x70,0x11,0x0,0x0,0x0,0x0,0x0,0x0,0x0,0x0,0x0
        11 00 00 00 00 00
        00 00 00 00
   15C0 52 60 30 10 78 70   352 .DB 0x52,0x60,0x30,0x10,0x78,0x70,0x61,0x0,0x0,0x0,0x0,0x0,0x0,0x0,0x0,0x0
        61 00 00 00 00 00
        00 00 00 00
   15D0 30 30 52 70 78 70   353 .DB 0x30,0x30,0x52,0x70,0x78,0x70,0x81,0x0,0x0,0x0,0x0,0x0,0x0,0x0,0x0,0x0
        81 00 00 00 00 00
        00 00 00 00
   15E0 34 30 3C 10 78 70   354 .DB 0x34,0x30,0x3C,0x10,0x78,0x70,0x11,0x0,0x0,0x0,0x0,0x0,0x0,0x0,0x0,0x0
        11 00 00 00 00 00
        00 00 00 00
   15F0 30 30 52 70 78 70   355 .DB 0x30,0x30,0x52,0x70,0x78,0x70,0x81,0x0,0x0,0x0,0x0,0x0,0x0,0x0,0x0,0x0
        81 00 00 00 00 00
        00 00 00 00
   1600 18 30 30 10 68 70   356 .DB 0x18,0x30,0x30,0x10,0x68,0x70,0x61,0x7C,0x0,0x0,0x0,0x0,0x0,0x0,0x0,0x0
        61 7C 00 00 00 00
        00 00 00 00
   1610 50 60 50 70 68 70   357 .DB 0x50,0x60,0x50,0x70,0x68,0x70,0x81,0x0,0x0,0x0,0x0,0x0,0x0,0x0,0x0,0x0
        81 00 00 00 00 00
        00 00 00 00
   1620 50 60 3C 10 68 70   358 .DB 0x50,0x60,0x3C,0x10,0x68,0x70,0x11,0x0,0x0,0x0,0x0,0x0,0x0,0x0,0x0,0x0
        11 00 00 00 00 00
        00 00 00 00
   1630 20 30 50 70 68 70   359 .DB 0x20,0x30,0x50,0x70,0x68,0x70,0x11,0x0,0x0,0x0,0x0,0x0,0x0,0x0,0x0,0x0
        11 00 00 00 00 00
        00 00 00 00
   1640 50 60 30 10 68 70   360 .DB 0x50,0x60,0x30,0x10,0x68,0x70,0x61,0x0,0x0,0x0,0x0,0x0,0x0,0x0,0x0,0x0
        61 00 00 00 00 00
        00 00 00 00
   1650 26 30 50 70 68 70   361 .DB 0x26,0x30,0x50,0x70,0x68,0x70,0x81,0x0,0x0,0x0,0x0,0x0,0x0,0x0,0x0,0x0
        81 00 00 00 00 00
        00 00 00 00
   1660 2A 30 3C 10 68 70   362 .DB 0x2A,0x30,0x3C,0x10,0x68,0x70,0x11,0x0,0x0,0x0,0x0,0x0,0x0,0x0,0x0,0x0
        11 00 00 00 00 00
        00 00 00 00
   1670 26 30 50 70 68 70   363 .DB 0x26,0x30,0x50,0x70,0x68,0x70,0x81,0x0,0x0,0x0,0x0,0x0,0x0,0x0,0x0,0x0
        81 00 00 00 00 00
        00 00 00 00
   1680 18 30 30 10 68 70   364 .DB 0x18,0x30,0x30,0x10,0x68,0x70,0x61,0x0,0x0,0x0,0x0,0x0,0x0,0x0,0x0,0x0
        61 00 00 00 00 00
        00 00 00 00
   1690 50 60 50 70 68 70   365 .DB 0x50,0x60,0x50,0x70,0x68,0x70,0x81,0x0,0x0,0x0,0x0,0x0,0x0,0x0,0x0,0x0
        81 00 00 00 00 00
        00 00 00 00
   16A0 50 60 3C 10 68 70   366 .DB 0x50,0x60,0x3C,0x10,0x68,0x70,0x11,0x0,0x0,0x0,0x0,0x0,0x0,0x0,0x0,0x0
        11 00 00 00 00 00
        00 00 00 00
   16B0 20 30 50 70 68 70   367 .DB 0x20,0x30,0x50,0x70,0x68,0x70,0x11,0x0,0x0,0x0,0x0,0x0,0x0,0x0,0x0,0x0
        11 00 00 00 00 00
        00 00 00 00
   16C0 50 60 30 10 68 70   368 .DB 0x50,0x60,0x30,0x10,0x68,0x70,0x61,0x0,0x0,0x0,0x0,0x0,0x0,0x0,0x0,0x0
        61 00 00 00 00 00
        00 00 00 00
   16D0 26 30 50 70 68 70   369 .DB 0x26,0x30,0x50,0x70,0x68,0x70,0x81,0x0,0x0,0x0,0x0,0x0,0x0,0x0,0x0,0x0
        81 00 00 00 00 00
        00 00 00 00
   16E0 2A 30 3C 10 68 70   370 .DB 0x2A,0x30,0x3C,0x10,0x68,0x70,0x11,0x0,0x0,0x0,0x0,0x0,0x0,0x0,0x0,0x0
        11 00 00 00 00 00
        00 00 00 00
   16F0 26 30 50 70 68 70   371 .DB 0x26,0x30,0x50,0x70,0x68,0x70,0x81,0x0,0x0,0x0,0x0,0x0,0x0,0x0,0x0,0x0
        81 00 00 00 00 00
        00 00 00 00
   1700 34 30 30 10 72 60   372 .DB 0x34,0x30,0x30,0x10,0x72,0x60,0x61,0x7C,0x0,0x0,0x0,0x0,0x0,0x0,0x0,0x0
        61 7C 00 00 00 00
        00 00 00 00
   1710 5A 60 00 00 00 00   373 .DB 0x5A,0x60,0x0,0x0,0x0,0x0,0x81,0x0,0x0,0x0,0x0,0x0,0x0,0x0,0x0,0x0
        81 00 00 00 00 00
        00 00 00 00
   1720 38 30 3C 10 76 60   374 .DB 0x38,0x30,0x3C,0x10,0x76,0x60,0x11,0x0,0x0,0x0,0x0,0x0,0x0,0x0,0x0,0x0
        11 00 00 00 00 00
        00 00 00 00
   1730 5A 60 3C 10 00 00   375 .DB 0x5A,0x60,0x3C,0x10,0x0,0x0,0x11,0x0,0x0,0x0,0x0,0x0,0x0,0x0,0x0,0x0
        11 00 00 00 00 00
        00 00 00 00
   1740 3A 30 30 10 78 60   376 .DB 0x3A,0x30,0x30,0x10,0x78,0x60,0x61,0x0,0x0,0x0,0x0,0x0,0x0,0x0,0x0,0x0
        61 00 00 00 00 00
        00 00 00 00
   1750 5A 60 00 00 00 00   377 .DB 0x5A,0x60,0x0,0x0,0x0,0x0,0x81,0x0,0x0,0x0,0x0,0x0,0x0,0x0,0x0,0x0
        81 00 00 00 00 00
        00 00 00 00
   1760 3C 30 3C 10 7A 60   378 .DB 0x3C,0x30,0x3C,0x10,0x7A,0x60,0x11,0x0,0x0,0x0,0x0,0x0,0x0,0x0,0x0,0x0
        11 00 00 00 00 00
        00 00 00 00
   1770 3E 30 00 00 7C 60   379 .DB 0x3E,0x30,0x0,0x0,0x7C,0x60,0x81,0x0,0x56,0x60,0x0,0x0,0x0,0x0,0x0,0x0
        81 00 56 60 00 00
        00 00 00 00
   1780 00 00 30 10 00 00   380 .DB 0x0,0x0,0x30,0x10,0x0,0x0,0x61,0x0,0x0,0x0,0x0,0x0,0x0,0x0,0x0,0x0
        61 00 00 00 00 00
        00 00 00 00
   1790 56 60 00 00 80 30   381 .DB 0x56,0x60,0x0,0x0,0x80,0x30,0x81,0x0,0x0,0x0,0x0,0x0,0x0,0x0,0x0,0x0
        81 00 00 00 00 00
        00 00 00 00
   17A0 00 00 00 00 86 30   382 .DB 0x0,0x0,0x0,0x0,0x86,0x30,0x11,0x0,0x0,0x0,0x0,0x0,0x80,0x30,0x0,0x0
        11 00 00 00 00 00
        80 30 00 00
   17B0 56 60 00 00 78 30   383 .DB 0x56,0x60,0x0,0x0,0x78,0x30,0x11,0x0,0x0,0x0,0x0,0x0,0x0,0x0,0x0,0x0
        11 00 00 00 00 00
        00 00 00 00
   17C0 26 30 00 00 72 30   384 .DB 0x26,0x30,0x0,0x0,0x72,0x30,0x61,0x0,0x0,0x0,0x0,0x0,0x0,0x0,0x0,0x0
        61 00 00 00 00 00
        00 00 00 00
   17D0 56 60 00 00 6E 30   385 .DB 0x56,0x60,0x0,0x0,0x6E,0x30,0x81,0x0,0x0,0x0,0x0,0x0,0x0,0x0,0x0,0x0
        81 00 00 00 00 00
        00 00 00 00
   17E0 2E 30 00 00 76 30   386 .DB 0x2E,0x30,0x0,0x0,0x76,0x30,0x11,0x0,0x0,0x0,0x0,0x0,0x0,0x0,0x0,0x0
        11 00 00 00 00 00
        00 00 00 00
   17F0 30 30 00 00 78 30   387 .DB 0x30,0x30,0x0,0x0,0x78,0x30,0x81,0x0,0x0,0x0,0x0,0x0,0x0,0x0,0x0,0x0
        81 00 00 00 00 00
        00 00 00 00
   1800 30 30 30 10 78 30   388 .DB 0x30,0x30,0x30,0x10,0x78,0x30,0x61,0x7C,0x0,0x0,0x0,0x0,0x0,0x0,0x0,0x0
        61 7C 00 00 00 00
        00 00 00 00
   1810 60 60 00 00 7C 30   389 .DB 0x60,0x60,0x0,0x0,0x7C,0x30,0x81,0x0,0x0,0x0,0x0,0x0,0x0,0x0,0x0,0x0
        81 00 00 00 00 00
        00 00 00 00
   1820 00 00 3C 10 78 30   390 .DB 0x0,0x0,0x3C,0x10,0x78,0x30,0x11,0x0,0x0,0x0,0x0,0x0,0x0,0x0,0x0,0x0
        11 00 00 00 00 00
        00 00 00 00
   1830 30 30 3C 10 72 30   391 .DB 0x30,0x30,0x3C,0x10,0x72,0x30,0x11,0x0,0x0,0x0,0x0,0x0,0x0,0x0,0x0,0x0
        11 00 00 00 00 00
        00 00 00 00
   1840 26 30 30 10 78 30   392 .DB 0x26,0x30,0x30,0x10,0x78,0x30,0x61,0x0,0x0,0x0,0x0,0x0,0x0,0x0,0x0,0x0
        61 00 00 00 00 00
        00 00 00 00
   1850 60 60 00 00 72 30   393 .DB 0x60,0x60,0x0,0x0,0x72,0x30,0x81,0x0,0x0,0x0,0x0,0x0,0x0,0x0,0x0,0x0
        81 00 00 00 00 00
        00 00 00 00
   1860 30 30 3C 10 6E 30   394 .DB 0x30,0x30,0x3C,0x10,0x6E,0x30,0x11,0x0,0x0,0x0,0x0,0x0,0x0,0x0,0x0,0x0
        11 00 00 00 00 00
        00 00 00 00
   1870 60 60 00 00 78 30   395 .DB 0x60,0x60,0x0,0x0,0x78,0x30,0x81,0x0,0x0,0x0,0x0,0x0,0x0,0x0,0x0,0x0
        81 00 00 00 00 00
        00 00 00 00
   1880 26 30 30 10 00 00   396 .DB 0x26,0x30,0x30,0x10,0x0,0x0,0x61,0x0,0x0,0x0,0x0,0x0,0x0,0x0,0x0,0x0
        61 00 00 00 00 00
        00 00 00 00
   1890 56 60 00 00 00 00   397 .DB 0x56,0x60,0x0,0x0,0x0,0x0,0x81,0x0,0x0,0x0,0x0,0x0,0x0,0x0,0x0,0x0
        81 00 00 00 00 00
        00 00 00 00
   18A0 26 30 3C 10 00 00   398 .DB 0x26,0x30,0x3C,0x10,0x0,0x0,0x11,0x0,0x0,0x0,0x0,0x0,0x0,0x0,0x0,0x0
        11 00 00 00 00 00
        00 00 00 00
   18B0 26 30 3C 10 00 00   399 .DB 0x26,0x30,0x3C,0x10,0x0,0x0,0x11,0x0,0x0,0x0,0x0,0x0,0x0,0x0,0x0,0x0
        11 00 00 00 00 00
        00 00 00 00
   18C0 56 60 3C 10 00 00   400 .DB 0x56,0x60,0x3C,0x10,0x0,0x0,0x11,0x0,0x0,0x0,0x0,0x0,0x0,0x0,0x0,0x0
        11 00 00 00 00 00
        00 00 00 00
   18D0 26 30 48 80 00 00   401 .DB 0x26,0x30,0x48,0x80,0x0,0x0,0x11,0x0,0x0,0x0,0x50,0x80,0x0,0x0,0x0,0x0
        11 00 00 00 50 80
        00 00 00 00
   18E0 26 30 54 80 00 00   402 .DB 0x26,0x30,0x54,0x80,0x0,0x0,0x11,0x0,0x0,0x0,0x58,0x80,0x0,0x0,0x0,0x0
        11 00 00 00 58 80
        00 00 00 00
   18F0 56 60 5C 80 00 00   403 .DB 0x56,0x60,0x5C,0x80,0x0,0x0,0x11,0x0,0x56,0x60,0x60,0x80,0x0,0x0,0x0,0x0
        11 00 56 60 60 80
        00 00 00 00
   1900 32 30 30 10 6A 80   404 .DB 0x32,0x30,0x30,0x10,0x6A,0x80,0x61,0x7C,0x0,0x0,0x0,0x0,0x0,0x0,0x0,0x0
        61 7C 00 00 00 00
        00 00 00 00
   1910 58 60 52 70 70 80   405 .DB 0x58,0x60,0x52,0x70,0x70,0x80,0x81,0x0,0x0,0x0,0x0,0x0,0x0,0x0,0x0,0x0
        81 00 00 00 00 00
        00 00 00 00
   1920 58 60 3C 10 7A 80   406 .DB 0x58,0x60,0x3C,0x10,0x7A,0x80,0x11,0x0,0x0,0x0,0x0,0x0,0x0,0x0,0x0,0x0
        11 00 00 00 00 00
        00 00 00 00
   1930 3A 30 52 70 76 80   407 .DB 0x3A,0x30,0x52,0x70,0x76,0x80,0x11,0x0,0x0,0x0,0x0,0x0,0x0,0x0,0x0,0x0
        11 00 00 00 00 00
        00 00 00 00
   1940 58 60 30 10 00 00   408 .DB 0x58,0x60,0x30,0x10,0x0,0x0,0x61,0x0,0x0,0x0,0x0,0x0,0x0,0x0,0x0,0x0
        61 00 00 00 00 00
        00 00 00 00
   1950 58 60 52 70 00 00   409 .DB 0x58,0x60,0x52,0x70,0x0,0x0,0x81,0x0,0x0,0x0,0x0,0x0,0x0,0x0,0x0,0x0
        81 00 00 00 00 00
        00 00 00 00
   1960 40 30 3C 10 00 00   410 .DB 0x40,0x30,0x3C,0x10,0x0,0x0,0x11,0x0,0x0,0x0,0x0,0x0,0x0,0x0,0x0,0x0
        11 00 00 00 00 00
        00 00 00 00
   1970 58 60 52 70 6A 80   411 .DB 0x58,0x60,0x52,0x70,0x6A,0x80,0x81,0x0,0x0,0x0,0x0,0x0,0x0,0x0,0x0,0x0
        81 00 00 00 00 00
        00 00 00 00
   1980 32 30 30 10 6A 80   412 .DB 0x32,0x30,0x30,0x10,0x6A,0x80,0x61,0x0,0x0,0x0,0x0,0x0,0x0,0x0,0x0,0x0
        61 00 00 00 00 00
        00 00 00 00
   1990 58 60 52 70 70 80   413 .DB 0x58,0x60,0x52,0x70,0x70,0x80,0x81,0x0,0x0,0x0,0x0,0x0,0x0,0x0,0x0,0x0
        81 00 00 00 00 00
        00 00 00 00
   19A0 58 60 3C 10 7A 80   414 .DB 0x58,0x60,0x3C,0x10,0x7A,0x80,0x11,0x0,0x0,0x0,0x0,0x0,0x0,0x0,0x0,0x0
        11 00 00 00 00 00
        00 00 00 00
   19B0 3A 30 3C 10 76 80   415 .DB 0x3A,0x30,0x3C,0x10,0x76,0x80,0x11,0x0,0x0,0x0,0x0,0x0,0x0,0x0,0x0,0x0
        11 00 00 00 00 00
        00 00 00 00
   19C0 58 60 30 10 00 00   416 .DB 0x58,0x60,0x30,0x10,0x0,0x0,0x61,0x0,0x0,0x0,0x0,0x0,0x0,0x0,0x0,0x0
        61 00 00 00 00 00
        00 00 00 00
   19D0 58 60 52 70 74 80   417 .DB 0x58,0x60,0x52,0x70,0x74,0x80,0x81,0x0,0x0,0x0,0x0,0x0,0x0,0x0,0x0,0x0
        81 00 00 00 00 00
        00 00 00 00
   19E0 40 30 3C 10 70 80   418 .DB 0x40,0x30,0x3C,0x10,0x70,0x80,0x11,0x0,0x0,0x0,0x0,0x0,0x0,0x0,0x0,0x0
        11 00 00 00 00 00
        00 00 00 00
   19F0 58 60 52 70 6C 80   419 .DB 0x58,0x60,0x52,0x70,0x6C,0x80,0x81,0x0,0x0,0x0,0x0,0x0,0x0,0x0,0x0,0x0
        81 00 00 00 00 00
        00 00 00 00
   1A00 32 30 30 10 70 80   420 .DB 0x32,0x30,0x30,0x10,0x70,0x80,0x61,0x7C,0x0,0x0,0x0,0x0,0x0,0x0,0x0,0x0
        61 7C 00 00 00 00
        00 00 00 00
   1A10 52 60 52 70 74 80   421 .DB 0x52,0x60,0x52,0x70,0x74,0x80,0x81,0x0,0x0,0x0,0x0,0x0,0x0,0x0,0x0,0x0
        81 00 00 00 00 00
        00 00 00 00
   1A20 52 60 3C 10 70 80   422 .DB 0x52,0x60,0x3C,0x10,0x70,0x80,0x11,0x0,0x0,0x0,0x0,0x0,0x0,0x0,0x0,0x0
        11 00 00 00 00 00
        00 00 00 00
   1A30 3A 30 52 70 6C 80   423 .DB 0x3A,0x30,0x52,0x70,0x6C,0x80,0x11,0x0,0x0,0x0,0x0,0x0,0x0,0x0,0x0,0x0
        11 00 00 00 00 00
        00 00 00 00
   1A40 52 60 30 10 6A 80   424 .DB 0x52,0x60,0x30,0x10,0x6A,0x80,0x61,0x0,0x0,0x0,0x0,0x0,0x0,0x0,0x0,0x0
        61 00 00 00 00 00
        00 00 00 00
   1A50 52 60 52 70 00 00   425 .DB 0x52,0x60,0x52,0x70,0x0,0x0,0x81,0x0,0x0,0x0,0x0,0x0,0x0,0x0,0x0,0x0
        81 00 00 00 00 00
        00 00 00 00
   1A60 40 30 3C 10 00 00   426 .DB 0x40,0x30,0x3C,0x10,0x0,0x0,0x11,0x0,0x0,0x0,0x0,0x0,0x0,0x0,0x0,0x0
        11 00 00 00 00 00
        00 00 00 00
   1A70 52 60 52 70 00 00   427 .DB 0x52,0x60,0x52,0x70,0x0,0x0,0x81,0x0,0x0,0x0,0x0,0x0,0x0,0x0,0x0,0x0
        81 00 00 00 00 00
        00 00 00 00
   1A80 32 30 30 10 00 00   428 .DB 0x32,0x30,0x30,0x10,0x0,0x0,0x61,0x0,0x0,0x0,0x0,0x0,0x0,0x0,0x0,0x0
        61 00 00 00 00 00
        00 00 00 00
   1A90 52 60 52 70 00 00   429 .DB 0x52,0x60,0x52,0x70,0x0,0x0,0x81,0x0,0x0,0x0,0x0,0x0,0x0,0x0,0x0,0x0
        81 00 00 00 00 00
        00 00 00 00
   1AA0 52 60 3C 10 00 00   430 .DB 0x52,0x60,0x3C,0x10,0x0,0x0,0x11,0x0,0x0,0x0,0x0,0x0,0x0,0x0,0x0,0x0
        11 00 00 00 00 00
        00 00 00 00
   1AB0 3A 30 3C 10 00 00   431 .DB 0x3A,0x30,0x3C,0x10,0x0,0x0,0x11,0x0,0x0,0x0,0x0,0x0,0x0,0x0,0x0,0x0
        11 00 00 00 00 00
        00 00 00 00
   1AC0 52 60 30 10 00 00   432 .DB 0x52,0x60,0x30,0x10,0x0,0x0,0x61,0x0,0x0,0x0,0x0,0x0,0x0,0x0,0x0,0x0
        61 00 00 00 00 00
        00 00 00 00
   1AD0 52 60 78 80 00 00   433 .DB 0x52,0x60,0x78,0x80,0x0,0x0,0x81,0x0,0x0,0x0,0x0,0x0,0x0,0x0,0x0,0x0
        81 00 00 00 00 00
        00 00 00 00
   1AE0 40 30 30 80 00 00   434 .DB 0x40,0x30,0x30,0x80,0x0,0x0,0x11,0x0,0x0,0x0,0x0,0x0,0x0,0x0,0x0,0x0
        11 00 00 00 00 00
        00 00 00 00
   1AF0 52 60 60 80 00 00   435 .DB 0x52,0x60,0x60,0x80,0x0,0x0,0x81,0x0,0x0,0x0,0x0,0x0,0x0,0x0,0x0,0x0
        81 00 00 00 00 00
        00 00 00 00
   1B00 26 30 30 10 7C 70   436 .DB 0x26,0x30,0x30,0x10,0x7C,0x70,0x61,0x7C,0x0,0x0,0x0,0x0,0x0,0x0,0x0,0x0
        61 7C 00 00 00 00
        00 00 00 00
   1B10 00 00 52 70 7C 70   437 .DB 0x0,0x0,0x52,0x70,0x7C,0x70,0x81,0x0,0x0,0x0,0x0,0x0,0x0,0x0,0x0,0x0
        81 00 00 00 00 00
        00 00 00 00
   1B20 00 00 3C 10 7C 70   438 .DB 0x0,0x0,0x3C,0x10,0x7C,0x70,0x11,0x0,0x0,0x0,0x0,0x0,0x0,0x0,0x0,0x0
        11 00 00 00 00 00
        00 00 00 00
   1B30 2E 30 52 70 7C 70   439 .DB 0x2E,0x30,0x52,0x70,0x7C,0x70,0x11,0x0,0x0,0x0,0x0,0x0,0x0,0x0,0x0,0x0
        11 00 00 00 00 00
        00 00 00 00
   1B40 00 00 30 10 7C 70   440 .DB 0x0,0x0,0x30,0x10,0x7C,0x70,0x61,0x0,0x0,0x0,0x0,0x0,0x0,0x0,0x0,0x0
        61 00 00 00 00 00
        00 00 00 00
   1B50 34 30 52 70 7C 70   441 .DB 0x34,0x30,0x52,0x70,0x7C,0x70,0x81,0x0,0x0,0x0,0x0,0x0,0x0,0x0,0x0,0x0
        81 00 00 00 00 00
        00 00 00 00
   1B60 38 30 3C 10 7C 70   442 .DB 0x38,0x30,0x3C,0x10,0x7C,0x70,0x11,0x0,0x0,0x0,0x0,0x0,0x0,0x0,0x0,0x0
        11 00 00 00 00 00
        00 00 00 00
   1B70 34 30 52 70 7C 70   443 .DB 0x34,0x30,0x52,0x70,0x7C,0x70,0x81,0x0,0x0,0x0,0x0,0x0,0x0,0x0,0x0,0x0
        81 00 00 00 00 00
        00 00 00 00
   1B80 26 30 30 10 76 70   444 .DB 0x26,0x30,0x30,0x10,0x76,0x70,0x61,0x0,0x0,0x0,0x0,0x0,0x0,0x0,0x0,0x0
        61 00 00 00 00 00
        00 00 00 00
   1B90 00 00 52 70 76 70   445 .DB 0x0,0x0,0x52,0x70,0x76,0x70,0x81,0x0,0x0,0x0,0x0,0x0,0x0,0x0,0x0,0x0
        81 00 00 00 00 00
        00 00 00 00
   1BA0 22 30 3C 10 72 70   446 .DB 0x22,0x30,0x3C,0x10,0x72,0x70,0x11,0x0,0x0,0x0,0x0,0x0,0x0,0x0,0x0,0x0
        11 00 00 00 00 00
        00 00 00 00
   1BB0 00 00 3C 10 72 70   447 .DB 0x0,0x0,0x3C,0x10,0x72,0x70,0x11,0x0,0x0,0x0,0x0,0x0,0x0,0x0,0x0,0x0
        11 00 00 00 00 00
        00 00 00 00
   1BC0 20 30 30 10 6E 70   448 .DB 0x20,0x30,0x30,0x10,0x6E,0x70,0x61,0x0,0x0,0x0,0x0,0x0,0x0,0x0,0x0,0x0
        61 00 00 00 00 00
        00 00 00 00
   1BD0 00 00 52 70 6E 70   449 .DB 0x0,0x0,0x52,0x70,0x6E,0x70,0x81,0x0,0x0,0x0,0x0,0x0,0x0,0x0,0x0,0x0
        81 00 00 00 00 00
        00 00 00 00
   1BE0 1C 30 3C 10 6A 70   450 .DB 0x1C,0x30,0x3C,0x10,0x6A,0x70,0x11,0x0,0x0,0x0,0x0,0x0,0x0,0x0,0x0,0x0
        11 00 00 00 00 00
        00 00 00 00
   1BF0 00 00 52 70 00 00   451 .DB 0x0,0x0,0x52,0x70,0x0,0x0,0x81,0x0,0x0,0x0,0x0,0x0,0x0,0x0,0x0,0x0
        81 00 00 00 00 00
        00 00 00 00
   1C00 3C 30 30 10 74 80   452 .DB 0x3C,0x30,0x30,0x10,0x74,0x80,0x61,0x7C,0x0,0x0,0x0,0x0,0x0,0x0,0x0,0x0
        61 7C 00 00 00 00
        00 00 00 00
   1C10 54 60 52 70 7A 80   453 .DB 0x54,0x60,0x52,0x70,0x7A,0x80,0x81,0x0,0x0,0x0,0x0,0x0,0x0,0x0,0x0,0x0
        81 00 00 00 00 00
        00 00 00 00
   1C20 54 60 3C 10 88 80   454 .DB 0x54,0x60,0x3C,0x10,0x88,0x80,0x11,0x0,0x0,0x0,0x0,0x0,0x0,0x0,0x0,0x0
        11 00 00 00 00 00
        00 00 00 00
   1C30 44 30 52 70 84 80   455 .DB 0x44,0x30,0x52,0x70,0x84,0x80,0x11,0x0,0x0,0x0,0x0,0x0,0x0,0x0,0x0,0x0
        11 00 00 00 00 00
        00 00 00 00
   1C40 54 60 30 10 00 00   456 .DB 0x54,0x60,0x30,0x10,0x0,0x0,0x61,0x0,0x0,0x0,0x0,0x0,0x0,0x0,0x0,0x0
        61 00 00 00 00 00
        00 00 00 00
   1C50 54 60 52 70 00 00   457 .DB 0x54,0x60,0x52,0x70,0x0,0x0,0x81,0x0,0x0,0x0,0x0,0x0,0x0,0x0,0x0,0x0
        81 00 00 00 00 00
        00 00 00 00
   1C60 4A 30 3C 10 00 00   458 .DB 0x4A,0x30,0x3C,0x10,0x0,0x0,0x11,0x0,0x0,0x0,0x0,0x0,0x0,0x0,0x0,0x0
        11 00 00 00 00 00
        00 00 00 00
   1C70 54 60 52 70 74 80   459 .DB 0x54,0x60,0x52,0x70,0x74,0x80,0x81,0x0,0x0,0x0,0x0,0x0,0x0,0x0,0x0,0x0
        81 00 00 00 00 00
        00 00 00 00
   1C80 3C 30 30 10 74 80   460 .DB 0x3C,0x30,0x30,0x10,0x74,0x80,0x61,0x0,0x0,0x0,0x0,0x0,0x0,0x0,0x0,0x0
        61 00 00 00 00 00
        00 00 00 00
   1C90 54 60 52 70 7A 80   461 .DB 0x54,0x60,0x52,0x70,0x7A,0x80,0x81,0x0,0x0,0x0,0x0,0x0,0x0,0x0,0x0,0x0
        81 00 00 00 00 00
        00 00 00 00
   1CA0 54 60 3C 10 84 80   462 .DB 0x54,0x60,0x3C,0x10,0x84,0x80,0x11,0x0,0x0,0x0,0x0,0x0,0x0,0x0,0x0,0x0
        11 00 00 00 00 00
        00 00 00 00
   1CB0 44 30 3C 10 80 80   463 .DB 0x44,0x30,0x3C,0x10,0x80,0x80,0x11,0x0,0x0,0x0,0x0,0x0,0x0,0x0,0x0,0x0
        11 00 00 00 00 00
        00 00 00 00
   1CC0 54 60 30 10 00 00   464 .DB 0x54,0x60,0x30,0x10,0x0,0x0,0x61,0x0,0x0,0x0,0x0,0x0,0x0,0x0,0x0,0x0
        61 00 00 00 00 00
        00 00 00 00
   1CD0 54 60 52 70 7E 80   465 .DB 0x54,0x60,0x52,0x70,0x7E,0x80,0x81,0x0,0x0,0x0,0x0,0x0,0x0,0x0,0x0,0x0
        81 00 00 00 00 00
        00 00 00 00
   1CE0 4A 30 3C 10 7A 80   466 .DB 0x4A,0x30,0x3C,0x10,0x7A,0x80,0x11,0x0,0x0,0x0,0x0,0x0,0x0,0x0,0x0,0x0
        11 00 00 00 00 00
        00 00 00 00
   1CF0 54 60 52 70 70 80   467 .DB 0x54,0x60,0x52,0x70,0x70,0x80,0x81,0x0,0x0,0x0,0x0,0x0,0x0,0x0,0x0,0x0
        81 00 00 00 00 00
        00 00 00 00
   1D00 28 30 30 10 7C 80   468 .DB 0x28,0x30,0x30,0x10,0x7C,0x80,0x61,0x7C,0x0,0x0,0x0,0x0,0x0,0x0,0x0,0x0
        61 7C 00 00 00 00
        00 00 00 00
   1D10 00 00 00 00 7E 80   469 .DB 0x0,0x0,0x0,0x0,0x7E,0x80,0x81,0x0,0x0,0x0,0x0,0x0,0x0,0x0,0x0,0x0
        81 00 00 00 00 00
        00 00 00 00
   1D20 58 70 3C 10 7C 80   470 .DB 0x58,0x70,0x3C,0x10,0x7C,0x80,0x11,0x0,0x0,0x0,0x0,0x0,0x0,0x0,0x0,0x0
        11 00 00 00 00 00
        00 00 00 00
   1D30 30 30 00 00 7E 80   471 .DB 0x30,0x30,0x0,0x0,0x7E,0x80,0x11,0x0,0x0,0x0,0x0,0x0,0x0,0x0,0x0,0x0
        11 00 00 00 00 00
        00 00 00 00
   1D40 58 70 30 10 7C 80   472 .DB 0x58,0x70,0x30,0x10,0x7C,0x80,0x61,0x0,0x0,0x0,0x0,0x0,0x0,0x0,0x0,0x0
        61 00 00 00 00 00
        00 00 00 00
   1D50 66 70 00 00 7E 80   473 .DB 0x66,0x70,0x0,0x0,0x7E,0x80,0x81,0x0,0x0,0x0,0x0,0x0,0x0,0x0,0x0,0x0
        81 00 00 00 00 00
        00 00 00 00
   1D60 36 30 3C 10 78 80   474 .DB 0x36,0x30,0x3C,0x10,0x78,0x80,0x11,0x0,0x0,0x0,0x0,0x0,0x0,0x0,0x0,0x0
        11 00 00 00 00 00
        00 00 00 00
   1D70 00 00 00 00 70 80   475 .DB 0x0,0x0,0x0,0x0,0x70,0x80,0x81,0x0,0x0,0x0,0x0,0x0,0x0,0x0,0x0,0x0
        81 00 00 00 00 00
        00 00 00 00
   1D80 24 30 30 10 78 80   476 .DB 0x24,0x30,0x30,0x10,0x78,0x80,0x61,0x0,0x0,0x0,0x0,0x0,0x0,0x0,0x0,0x0
        61 00 00 00 00 00
        00 00 00 00
   1D90 00 00 00 00 7A 80   477 .DB 0x0,0x0,0x0,0x0,0x7A,0x80,0x81,0x0,0x0,0x0,0x0,0x0,0x0,0x0,0x0,0x0
        81 00 00 00 00 00
        00 00 00 00
   1DA0 60 70 3C 10 78 80   478 .DB 0x60,0x70,0x3C,0x10,0x78,0x80,0x11,0x0,0x0,0x0,0x0,0x0,0x0,0x0,0x0,0x0
        11 00 00 00 00 00
        00 00 00 00
   1DB0 2C 30 3C 10 7A 80   479 .DB 0x2C,0x30,0x3C,0x10,0x7A,0x80,0x11,0x0,0x0,0x0,0x0,0x0,0x0,0x0,0x0,0x0
        11 00 00 00 00 00
        00 00 00 00
   1DC0 00 00 30 10 78 80   480 .DB 0x0,0x0,0x30,0x10,0x78,0x80,0x61,0x0,0x0,0x0,0x0,0x0,0x0,0x0,0x0,0x0
        61 00 00 00 00 00
        00 00 00 00
   1DD0 62 70 00 00 7A 80   481 .DB 0x62,0x70,0x0,0x0,0x7A,0x80,0x81,0x0,0x0,0x0,0x0,0x0,0x0,0x0,0x0,0x0
        81 00 00 00 00 00
        00 00 00 00
   1DE0 32 30 3C 10 74 80   482 .DB 0x32,0x30,0x3C,0x10,0x74,0x80,0x11,0x0,0x0,0x0,0x0,0x0,0x0,0x0,0x0,0x0
        11 00 00 00 00 00
        00 00 00 00
   1DF0 00 00 00 00 6A 80   483 .DB 0x0,0x0,0x0,0x0,0x6A,0x80,0x81,0x0,0x0,0x0,0x0,0x0,0x0,0x0,0x0,0x0
        81 00 00 00 00 00
        00 00 00 00
   1E00 32 30 30 10 70 80   484 .DB 0x32,0x30,0x30,0x10,0x70,0x80,0x61,0x7C,0x0,0x0,0x0,0x0,0x0,0x0,0x0,0x0
        61 7C 00 00 00 00
        00 00 00 00
   1E10 00 00 00 00 74 80   485 .DB 0x0,0x0,0x0,0x0,0x74,0x80,0x81,0x0,0x0,0x0,0x0,0x0,0x0,0x0,0x0,0x0
        81 00 00 00 00 00
        00 00 00 00
   1E20 00 00 3C 10 70 80   486 .DB 0x0,0x0,0x3C,0x10,0x70,0x80,0x11,0x0,0x0,0x0,0x0,0x0,0x0,0x0,0x0,0x0
        11 00 00 00 00 00
        00 00 00 00
   1E30 3A 30 00 00 6C 80   487 .DB 0x3A,0x30,0x0,0x0,0x6C,0x80,0x11,0x0,0x0,0x0,0x0,0x0,0x0,0x0,0x0,0x0
        11 00 00 00 00 00
        00 00 00 00
   1E40 00 00 30 10 6A 80   488 .DB 0x0,0x0,0x30,0x10,0x6A,0x80,0x61,0x0,0x0,0x0,0x0,0x0,0x0,0x0,0x0,0x0
        61 00 00 00 00 00
        00 00 00 00
   1E50 00 00 00 00 00 00   489 .DB 0x0,0x0,0x0,0x0,0x0,0x0,0x81,0x0,0x0,0x0,0x0,0x0,0x0,0x0,0x0,0x0
        81 00 00 00 00 00
        00 00 00 00
   1E60 40 30 3C 10 00 00   490 .DB 0x40,0x30,0x3C,0x10,0x0,0x0,0x11,0x0,0x0,0x0,0x0,0x90,0x0,0x0,0x0,0x0
        11 00 00 00 00 90
        00 00 00 00
   1E70 00 00 00 00 00 00   491 .DB 0x0,0x0,0x0,0x0,0x0,0x0,0x81,0x0,0x0,0x0,0x0,0x0,0x0,0x0,0x0,0x0
        81 00 00 00 00 00
        00 00 00 00
   1E80 28 30 30 10 00 00   492 .DB 0x28,0x30,0x30,0x10,0x0,0x0,0x61,0x0,0x0,0x0,0x0,0x0,0x0,0x0,0x0,0x0
        61 00 00 00 00 00
        00 00 00 00
   1E90 00 00 00 00 00 00   493 .DB 0x0,0x0,0x0,0x0,0x0,0x0,0x81,0x0,0x0,0x0,0x0,0x0,0x0,0x0,0x0,0x0
        81 00 00 00 00 00
        00 00 00 00
   1EA0 00 00 3C 10 00 00   494 .DB 0x0,0x0,0x3C,0x10,0x0,0x0,0x11,0x0,0x0,0x0,0x0,0x0,0x0,0x0,0x0,0x0
        11 00 00 00 00 00
        00 00 00 00
   1EB0 00 00 3C 10 00 00   495 .DB 0x0,0x0,0x3C,0x10,0x0,0x0,0x11,0x0,0x0,0x0,0x0,0x0,0x0,0x0,0x0,0x0
        11 00 00 00 00 00
        00 00 00 00
   1EC0 00 00 30 10 00 00   496 .DB 0x0,0x0,0x30,0x10,0x0,0x0,0x61,0x0,0x0,0x0,0x0,0x0,0x0,0x0,0x0,0x0
        61 00 00 00 00 00
        00 00 00 00
   1ED0 00 00 3C 10 00 00   497 .DB 0x0,0x0,0x3C,0x10,0x0,0x0,0x11,0x0,0x0,0x0,0x0,0x0,0x0,0x0,0x0,0x0
        11 00 00 00 00 00
        00 00 00 00
   1EE0 00 00 60 80 00 00   498 .DB 0x0,0x0,0x60,0x80,0x0,0x0,0x11,0x0,0x0,0x0,0x0,0x0,0x0,0x0,0x0,0x0
        11 00 00 00 00 00
        00 00 00 00
   1EF0 00 00 90 80 00 00   499 .DB 0x0,0x0,0x90,0x80,0x0,0x0,0x11,0x0,0x0,0x0,0x0,0x0,0x0,0x0,0x0,0x0
        11 00 00 00 00 00
        00 00 00 00
   1F00 38 30 30 10 98 90   500 .DB 0x38,0x30,0x30,0x10,0x98,0x90,0x61,0x7C,0x0,0x0,0x0,0x0,0x0,0x0,0x0,0x0
        61 7C 00 00 00 00
        00 00 00 00
   1F10 38 30 00 00 00 00   501 .DB 0x38,0x30,0x0,0x0,0x0,0x0,0x81,0x0,0x0,0x0,0x0,0x0,0x0,0x0,0x0,0x0
        81 00 00 00 00 00
        00 00 00 00
   1F20 38 30 3C 10 00 00   502 .DB 0x38,0x30,0x3C,0x10,0x0,0x0,0x11,0x0,0x0,0x0,0x0,0x0,0x0,0x0,0x0,0x0
        11 00 00 00 00 00
        00 00 00 00
   1F30 38 30 3C 10 96 90   503 .DB 0x38,0x30,0x3C,0x10,0x96,0x90,0x11,0x0,0x0,0x0,0x0,0x0,0x0,0x0,0x0,0x0
        11 00 00 00 00 00
        00 00 00 00
   1F40 2E 30 30 10 98 90   504 .DB 0x2E,0x30,0x30,0x10,0x98,0x90,0x61,0x0,0x0,0x0,0x0,0x0,0x0,0x0,0x0,0x0
        61 00 00 00 00 00
        00 00 00 00
   1F50 2E 30 00 00 00 00   505 .DB 0x2E,0x30,0x0,0x0,0x0,0x0,0x81,0x0,0x0,0x0,0x0,0x0,0x8E,0x90,0x0,0x0
        81 00 00 00 00 00
        8E 90 00 00
   1F60 32 30 3C 10 88 90   506 .DB 0x32,0x30,0x3C,0x10,0x88,0x90,0x11,0x0,0x0,0x0,0x0,0x0,0x0,0x0,0x0,0x0
        11 00 00 00 00 00
        00 00 00 00
   1F70 36 30 00 00 00 00   507 .DB 0x36,0x30,0x0,0x0,0x0,0x0,0x81,0x0,0x0,0x0,0x0,0x0,0x8E,0x90,0x0,0x0
        81 00 00 00 00 00
        8E 90 00 00
   1F80 38 30 30 10 98 90   508 .DB 0x38,0x30,0x30,0x10,0x98,0x90,0x61,0x0,0x0,0x0,0x0,0x0,0x0,0x0,0x0,0x0
        61 00 00 00 00 00
        00 00 00 00
   1F90 38 30 00 00 98 90   509 .DB 0x38,0x30,0x0,0x0,0x98,0x90,0x81,0x0,0x0,0x0,0x0,0x0,0x0,0x0,0x0,0x0
        81 00 00 00 00 00
        00 00 00 00
   1FA0 38 30 3C 10 96 90   510 .DB 0x38,0x30,0x3C,0x10,0x96,0x90,0x11,0x0,0x0,0x0,0x0,0x0,0x0,0x0,0x0,0x0
        11 00 00 00 00 00
        00 00 00 00
   1FB0 38 30 3C 10 98 90   511 .DB 0x38,0x30,0x3C,0x10,0x98,0x90,0x11,0x0,0x0,0x0,0x0,0x0,0x0,0x0,0x0,0x0
        11 00 00 00 00 00
        00 00 00 00
[...]
        FF FF 00 00 00 00
        00 00 00 00
   3820 FF FE FF FF FF FF   902 .DB 0xFF,0xFE,0xFF,0xFF,0xFF,0xFF,0xFF,0xBF,0x40,0x0,0x0,0x0,0x0,0x0,0x4,0x0
        FF BF 40 00 00 00
        00 00 04 00
   3830 FF DF FF BF FF FF   903 .DB 0xFF,0xDF,0xFF,0xBF,0xFF,0xFF,0xBF,0xFF,0x0,0x0,0x0,0x0,0x0,0x0,0x0,0x0
        BF FF 00 00 00 00
        00 00 00 00
   3840 FF FF FF FF FF 7F   904 .DB 0xFF,0xFF,0xFF,0xFF,0xFF,0x7F,0xFF,0xFF,0x0,0x0,0x0,0x0,0x0,0x0,0x0,0x0
        FF FF 00 00 00 00
        00 00 00 00
   3850 FF DF FF FF FF FF   905 .DB 0xFF,0xDF,0xFF,0xFF,0xFF,0xFF,0xFF,0xFF,0x0,0x0,0x0,0x0,0x40,0x0,0x80,0x0
        FF FF 00 00 00 00
        40 00 80 00
   3860 FF FF FF FF FB FF   906 .DB 0xFF,0xFF,0xFF,0xFF,0xFB,0xFF,0xFF,0xFF,0x40,0x1,0x0,0x0,0x0,0x0,0x0,0x0
        FF FF 40 01 00 00
        00 00 00 00
   3870 FF FF FF FF FF FF   907 .DB 0xFF,0xFF,0xFF,0xFF,0xFF,0xFF,0xFF,0xFF,0x0,0x0,0x0,0x0,0x0,0x0,0x0,0x0
        FF FF 00 00 00 00
        00 00 00 00
   3880 FF FF FF F7 FF FF   908 .DB 0xFF,0xFF,0xFF,0xF7,0xFF,0xFF,0xFF,0xFF,0x0,0x0,0x20,0x0,0x0,0x0,0x0,0x0
        FF FF 00 00 20 00
        00 00 00 00
   3890 FF FB EF FF FF DF   909 .DB 0xFF,0xFB,0xEF,0xFF,0xFF,0xDF,0xFF,0xFF,0x0,0x0,0x0,0x0,0x0,0x10,0x0,0x0
        FF FF 00 00 00 00
        00 10 00 00
   38A0 BF FF DF FF FF FF   910 .DB 0xBF,0xFF,0xDF,0xFF,0xFF,0xFF,0xFF,0xFF,0x0,0x0,0x8,0x0,0x0,0x0,0x0,0x0
        FF FF 00 00 08 00
        00 00 00 00
   38B0 FF FF DF FF EE FF   911 .DB 0xFF,0xFF,0xDF,0xFF,0xEE,0xFF,0xFF,0xFF,0x0,0x0,0x0,0x0,0x0,0x0,0x0,0x0
        FF FF 00 00 00 00
        00 00 00 00
   38C0 FF FF 7F FF FF FF   912 .DB 0xFF,0xFF,0x7F,0xFF,0xFF,0xFF,0xEF,0xFF,0x0,0x0,0x0,0x0,0x0,0x0,0x0,0x0
        EF FF 00 00 00 00
        00 00 00 00
   38D0 FF FF FF FF FF FF   913 .DB 0xFF,0xFF,0xFF,0xFF,0xFF,0xFF,0xFF,0xFF,0x0,0x4,0x0,0x0,0x0,0x0,0x0,0x0
        FF FF 00 04 00 00
        00 00 00 00
   38E0 FF FF FF FF FF FF   914 .DB 0xFF,0xFF,0xFF,0xFF,0xFF,0xFF,0xFF,0xFF,0x0,0x0,0x0,0x0,0x0,0x40,0x0,0x0
        FF FF 00 00 00 00
        00 40 00 00
   38F0 FF FF FF FF FF FF   915 .DB 0xFF,0xFF,0xFF,0xFF,0xFF,0xFF,0xDF,0xFF,0x0,0x0,0x0,0x0,0x0,0x0,0x0,0x0
        DF FF 00 00 00 00
        00 00 00 00
   3900 20 02 00 00 00 00   916 .DB 0x20,0x2,0x0,0x0,0x0,0x0,0x0,0x0,0xDF,0xFF,0xFF,0xFB,0xFF,0xFF,0xFF,0xFF
        00 00 DF FF FF FB
        FF FF FF FF
   3910 00 00 00 00 00 00   917 .DB 0x0,0x0,0x0,0x0,0x0,0x0,0x0,0x0,0xFF,0xFF,0xFF,0xFF,0xFF,0xFF,0xFF,0xFF
        00 00 FF FF FF FF
        FF FF FF FF
   3920 00 00 00 00 00 00   918 .DB 0x0,0x0,0x0,0x0,0x0,0x0,0x10,0x0,0xFF,0xFF,0xFF,0xFF,0xFF,0xFF,0xFF,0xBF
        10 00 FF FF FF FF
        FF FF FF BF
   3930 08 00 00 00 00 00   919 .DB 0x8,0x0,0x0,0x0,0x0,0x0,0x0,0x0,0xFF,0xFF,0xFF,0xFF,0xFF,0xFF,0xFF,0xFB
        00 00 FF FF FF FF
        FF FF FF FB
   3940 00 00 00 00 00 00   920 .DB 0x0,0x0,0x0,0x0,0x0,0x0,0x0,0x0,0xFF,0xFF,0xFF,0xFF,0xFF,0xFF,0xFF,0xFF
        00 00 FF FF FF FF
        FF FF FF FF
   3950 00 00 00 00 00 00   921 .DB 0x0,0x0,0x0,0x0,0x0,0x0,0x0,0x0,0xFF,0xFF,0xFF,0xFE,0xFF,0xFF,0xFF,0xFF
        00 00 FF FF FF FE
        FF FF FF FF
   3960 00 00 00 00 08 00   922 .DB 0x0,0x0,0x0,0x0,0x8,0x0,0x0,0x0,0xFF,0xDF,0xFF,0xFF,0xFF,0xFF,0xFF,0xFF
        00 00 FF DF FF FF
        FF FF FF FF
   3970 00 00 00 00 00 00   923 .DB 0x0,0x0,0x0,0x0,0x0,0x0,0x0,0x0,0xFF,0xFF,0xFF,0xFF,0xFF,0xFF,0xFF,0xFF
        00 00 FF FF FF FF
        FF FF FF FF
   3980 00 00 00 00 08 00   924 .DB 0x0,0x0,0x0,0x0,0x8,0x0,0x10,0x0,0xFF,0xFF,0xFF,0xFF,0x77,0xFF,0xFF,0xFF
        10 00 FF FF FF FF
        77 FF FF FF
   3990 00 00 00 00 00 00   925 .DB 0x0,0x0,0x0,0x0,0x0,0x0,0x0,0x0,0xFF,0xFF,0x7F,0xFF,0xFF,0xFF,0xFF,0xFF
        00 00 FF FF 7F FF
        FF FF FF FF
   39A0 00 00 00 00 00 00   926 .DB 0x0,0x0,0x0,0x0,0x0,0x0,0x0,0x0,0xFF,0xFF,0xFF,0xFF,0xFF,0xFF,0xFF,0xFF
        00 00 FF FF FF FF
        FF FF FF FF
   39B0 00 00 08 00 00 00   927 .DB 0x0,0x0,0x8,0x0,0x0,0x0,0x0,0x0,0xFF,0xFF,0x7F,0xFF,0xFF,0xFF,0xDF,0xFF
        00 00 FF FF 7F FF
        FF FF DF FF
   39C0 00 02 00 00 80 00   928 .DB 0x0,0x2,0x0,0x0,0x80,0x0,0x0,0x0,0xFF,0xFF,0xFE,0xDF,0xFF,0xDF,0xFF,0xFB
        00 00 FF FF FE DF
        FF DF FF FB
   39D0 00 00 00 00 00 00   929 .DB 0x0,0x0,0x0,0x0,0x0,0x0,0x0,0x0,0xFF,0xFF,0xFF,0xFF,0xFF,0xFF,0xFF,0xFF
        00 00 FF FF FF FF
        FF FF FF FF
   39E0 00 04 40 00 00 00   930 .DB 0x0,0x4,0x40,0x0,0x0,0x0,0x10,0x0,0xFF,0xFF,0xFF,0xFF,0xFF,0xFF,0xFF,0xFF
        10 00 FF FF FF FF
        FF FF FF FF
   39F0 00 00 00 00 00 00   931 .DB 0x0,0x0,0x0,0x0,0x0,0x0,0x0,0x0,0xFF,0xFF,0xFF,0xFF,0xFF,0xAF,0xFF,0xFF
        00 00 FF FF FF FF
        FF AF FF FF
   3A00 FF FF FE FF FF FF   932 .DB 0xFF,0xFF,0xFE,0xFF,0xFF,0xFF,0xFF,0xFF,0x0,0x0,0x40,0x0,0x0,0x0,0x0,0x0
        FF FF 00 00 40 00
        00 00 00 00
   3A10 FF FF FF FF FF FF   933 .DB 0xFF,0xFF,0xFF,0xFF,0xFF,0xFF,0xFF,0xFF,0x0,0x0,0x0,0x0,0x0,0x0,0x4,0x0
        FF FF 00 00 00 00
        00 00 04 00
   3A20 EF FF FF FF FD FF   934 .DB 0xEF,0xFF,0xFF,0xFF,0xFD,0xFF,0xFF,0x7F,0x0,0x0,0x0,0x20,0x0,0x0,0x0,0x0
        FF 7F 00 00 00 20
        00 00 00 00
   3A30 FF FF BF FD FF FF   935 .DB 0xFF,0xFF,0xBF,0xFD,0xFF,0xFF,0xF7,0xFF,0x0,0x0,0x0,0x1,0x0,0x0,0x0,0x0
        F7 FF 00 00 00 01
        00 00 00 00
   3A40 FB FF FF FF FF FF   936 .DB 0xFB,0xFF,0xFF,0xFF,0xFF,0xFF,0xFF,0xFF,0x40,0x4,0x0,0x40,0x0,0x0,0x0,0x0
        FF FF 40 04 00 40
        00 00 00 00
   3A50 FF FB FF FF 7F FF   937 .DB 0xFF,0xFB,0xFF,0xFF,0x7F,0xFF,0xFF,0xFF,0x0,0x0,0x0,0x0,0x0,0x0,0x0,0x0
        FF FF 00 00 00 00
        00 00 00 00
   3A60 FF FD FF FF FF FF   938 .DB 0xFF,0xFD,0xFF,0xFF,0xFF,0xFF,0xFF,0xFF,0x0,0x80,0x0,0x0,0x0,0x0,0x0,0x0
        FF FF 00 80 00 00
        00 00 00 00
   3A70 FF FF FF FF FF FF   939 .DB 0xFF,0xFF,0xFF,0xFF,0xFF,0xFF,0xFF,0xFF,0x0,0x0,0x0,0x0,0x0,0x0,0x0,0x20
        FF FF 00 00 00 00
        00 00 00 20
   3A80 FF FF FF FF FF 7F   940 .DB 0xFF,0xFF,0xFF,0xFF,0xFF,0x7F,0xFF,0xFF,0x0,0x0,0x0,0x0,0x4,0x10,0x1,0x0
        FF FF 00 00 00 00
        04 10 01 00
   3A90 FF FF FD DB FF FF   941 .DB 0xFF,0xFF,0xFD,0xDB,0xFF,0xFF,0xFF,0xFF,0x0,0x0,0x0,0x0,0x0,0x0,0x0,0x0
        FF FF 00 00 00 00
        00 00 00 00
   3AA0 DF FF FD FF FF FF   942 .DB 0xDF,0xFF,0xFD,0xFF,0xFF,0xFF,0xFF,0xFF,0x0,0x0,0x10,0x0,0x0,0x0,0x0,0x0
        FF FF 00 00 10 00
        00 00 00 00
   3AB0 FF FF FF FF FF FF   943 .DB 0xFF,0xFF,0xFF,0xFF,0xFF,0xFF,0xF7,0xFF,0x0,0x0,0x0,0x0,0x0,0x0,0x40,0x40
        F7 FF 00 00 00 00
        00 00 40 40
   3AC0 FF FF FF EF FF FF   944 .DB 0xFF,0xFF,0xFF,0xEF,0xFF,0xFF,0xFD,0xFF,0x0,0x0,0x0,0x80,0x0,0x0,0x0,0x0
        FD FF 00 00 00 80
        00 00 00 00
   3AD0 FF CF FF FF FF FF   945 .DB 0xFF,0xCF,0xFF,0xFF,0xFF,0xFF,0xFF,0xFF,0x0,0x0,0x0,0x0,0x0,0x0,0x0,0x0
        FF FF 00 00 00 00
        00 00 00 00
   3AE0 FF 7F FF FF FF FF   946 .DB 0xFF,0x7F,0xFF,0xFF,0xFF,0xFF,0xFF,0xFF,0x0,0x0,0x0,0x0,0x0,0x0,0x0,0x0
        FF FF 00 00 00 00
        00 00 00 00
   3AF0 FF FF FF FF FF FF   947 .DB 0xFF,0xFF,0xFF,0xFF,0xFF,0xFF,0xFF,0xFF,0x0,0x0,0x0,0x4,0x1,0x20,0x0,0x8
        FF FF 00 00 00 04
        01 20 00 08
   3B00 00 00 20 04 00 00   948 .DB 0x0,0x0,0x20,0x4,0x0,0x0,0x0,0x0,0xFF,0xFF,0xF7,0xFF,0xFF,0xFF,0xFF,0xFF
        00 00 FF FF F7 FF
        FF FF FF FF
   3B10 00 00 00 00 00 00   949 .DB 0x0,0x0,0x0,0x0,0x0,0x0,0x0,0x0,0xFD,0xFF,0xFF,0xFE,0xFF,0xFF,0xFF,0xFF
        00 00 FD FF FF FE
        FF FF FF FF
   3B20 00 00 00 00 00 00   950 .DB 0x0,0x0,0x0,0x0,0x0,0x0,0x0,0x0,0xFF,0xFF,0xFF,0xFF,0xFF,0xFF,0xFF,0xBF
        00 00 FF FF FF FF
        FF FF FF BF
   3B30 00 00 00 00 00 00   951 .DB 0x0,0x0,0x0,0x0,0x0,0x0,0x0,0x0,0xFF,0xFF,0xFF,0xFF,0xFF,0xFF,0xFF,0xFF
        00 00 FF FF FF FF
        FF FF FF FF
   3B40 00 00 00 00 00 10   952 .DB 0x0,0x0,0x0,0x0,0x0,0x10,0x0,0x0,0xFF,0xFF,0xFF,0xFF,0xFF,0x7F,0xFF,0xBF
        00 00 FF FF FF FF
        FF 7F FF BF
   3B50 00 00 00 00 00 00   953 .DB 0x0,0x0,0x0,0x0,0x0,0x0,0x0,0x0,0xFF,0xFF,0xFF,0xFF,0xFF,0xFF,0xFF,0xFF
        00 00 FF FF FF FF
        FF FF FF FF
   3B60 00 00 40 00 00 00   954 .DB 0x0,0x0,0x40,0x0,0x0,0x0,0x0,0x0,0xFF,0xFF,0xFF,0xFF,0xFF,0xFF,0xFF,0xFF
        00 00 FF FF FF FF
        FF FF FF FF
   3B70 00 00 00 00 00 80   955 .DB 0x0,0x0,0x0,0x0,0x0,0x80,0x0,0x0,0xFF,0xFF,0xFF,0xFF,0xFF,0xFF,0xFF,0xFF
        00 00 FF FF FF FF
        FF FF FF FF
   3B80 00 00 00 00 00 00   956 .DB 0x0,0x0,0x0,0x0,0x0,0x0,0x0,0x2,0xFF,0xFF,0xFF,0xFF,0xFF,0xFF,0xFF,0xFF
        00 02 FF FF FF FF
        FF FF FF FF
   3B90 00 00 02 00 00 00   957 .DB 0x0,0x0,0x2,0x0,0x0,0x0,0x0,0x0,0xFF,0xFF,0xFF,0xFF,0xFF,0xFF,0xFF,0xFF
        00 00 FF FF FF FF
        FF FF FF FF
   3BA0 00 00 04 00 20 00   958 .DB 0x0,0x0,0x4,0x0,0x20,0x0,0x40,0x0,0xFD,0xFF,0xFF,0xFB,0xFF,0xFF,0xFF,0xFF
        40 00 FD FF FF FB
        FF FF FF FF
   3BB0 00 00 40 00 00 00   959 .DB 0x0,0x0,0x40,0x0,0x0,0x0,0x0,0x0,0xFF,0xFF,0xFF,0xFF,0xFF,0xFF,0xFF,0xFF
        00 00 FF FF FF FF
        FF FF FF FF
   3BC0 00 00 00 00 00 00   960 .DB 0x0,0x0,0x0,0x0,0x0,0x0,0x0,0x0,0xFF,0xBF,0xFF,0xFF,0xFF,0xFF,0xFF,0xFF
        00 00 FF BF FF FF
        FF FF FF FF
   3BD0 00 01 00 00 00 02   961 .DB 0x0,0x1,0x0,0x0,0x0,0x2,0x0,0x0,0xFF,0xFF,0xFF,0xFF,0xFF,0x7F,0xFF,0xFF
        00 00 FF FF FF FF
        FF 7F FF FF
   3BE0 00 00 00 00 00 00   962 .DB 0x0,0x0,0x0,0x0,0x0,0x0,0x0,0x0,0xFF,0xFD,0xFF,0xFD,0xFF,0xFF,0xFF,0xFF
        00 00 FF FD FF FD
        FF FF FF FF
   3BF0 00 00 00 00 00 00   963 .DB 0x0,0x0,0x0,0x0,0x0,0x0,0x8,0x0,0xFF,0xFF,0xFF,0xFE,0xFF,0xFF,0xFF,0xFF
        08 00 FF FF FF FE
        FF FF FF FF
   3C00 FF FF FF FF FF FB   964 .DB 0xFF,0xFF,0xFF,0xFF,0xFF,0xFB,0xFF,0xFF,0x0,0x0,0x0,0x0,0x0,0x0,0x0,0x0
        FF FF 00 00 00 00
        00 00 00 00
   3C10 FF FF FF FF FF FF   965 .DB 0xFF,0xFF,0xFF,0xFF,0xFF,0xFF,0xFF,0xFF,0x0,0x0,0x0,0x0,0x0,0x0,0x0,0x0
        FF FF 00 00 00 00
        00 00 00 00
   3C20 FF FF FE DF FF FF   966 .DB 0xFF,0xFF,0xFE,0xDF,0xFF,0xFF,0xFF,0xFF,0x0,0x0,0x0,0x0,0x0,0x0,0x0,0x0
        FF FF 00 00 00 00
        00 00 00 00
   3C30 FF FF FF FF FF FF   967 .DB 0xFF,0xFF,0xFF,0xFF,0xFF,0xFF,0xF7,0xFF,0x0,0x0,0x0,0x0,0x8,0x0,0x18,0x2
        F7 FF 00 00 00 00
        08 00 18 02
   3C40 FF FF FF FF FF FF   968 .DB 0xFF,0xFF,0xFF,0xFF,0xFF,0xFF,0xFF,0xFF,0x0,0x0,0x0,0x0,0x0,0x0,0x0,0x0
        FF FF 00 00 00 00
        00 00 00 00
   3C50 FF FF FF FF FF FF   969 .DB 0xFF,0xFF,0xFF,0xFF,0xFF,0xFF,0xFF,0xFF,0x0,0x0,0x8,0x0,0x0,0x0,0x0,0x0
        FF FF 00 00 08 00
        00 00 00 00
   3C60 BB FF FF FF FF FF   970 .DB 0xBB,0xFF,0xFF,0xFF,0xFF,0xFF,0xFF,0xFF,0x0,0x0,0x0,0x0,0x0,0x0,0x0,0x0
        FF FF 00 00 00 00
        00 00 00 00
   3C70 FF FF FF EF FF FF   971 .DB 0xFF,0xFF,0xFF,0xEF,0xFF,0xFF,0xFF,0xFF,0x0,0x10,0x20,0x0,0x0,0x0,0x0,0x0
        FF FF 00 10 20 00
        00 00 00 00
   3C80 FF FF FF FF FF FB   972 .DB 0xFF,0xFF,0xFF,0xFF,0xFF,0xFB,0xFF,0xFF,0x0,0x0,0x0,0x0,0x80,0x0,0x20,0x0
        FF FF 00 00 00 00
        80 00 20 00
   3C90 EF FF FF FF FF FF   973 .DB 0xEF,0xFF,0xFF,0xFF,0xFF,0xFF,0xFF,0xFF,0x0,0x8,0x0,0x0,0x0,0x0,0x0,0x40
        FF FF 00 08 00 00
        00 00 00 40
   3CA0 FF F7 FF 7F FF FF   974 .DB 0xFF,0xF7,0xFF,0x7F,0xFF,0xFF,0xFF,0xFF,0x0,0x0,0x0,0x0,0x11,0x0,0x0,0x10
        FF FF 00 00 00 00
        11 00 00 10
   3CB0 FF FF FF FF FF FF   975 .DB 0xFF,0xFF,0xFF,0xFF,0xFF,0xFF,0xFF,0xFF,0x0,0x2,0x0,0x0,0x0,0x20,0x0,0x0
        FF FF 00 02 00 00
        00 20 00 00
   3CC0 FF FF FF FF FF FF   976 .DB 0xFF,0xFF,0xFF,0xFF,0xFF,0xFF,0xF7,0xFE,0x0,0x0,0x0,0x0,0x0,0x0,0x8,0x0
        F7 FE 00 00 00 00
        00 00 08 00
   3CD0 FF FB FF FF FF FF   977 .DB 0xFF,0xFB,0xFF,0xFF,0xFF,0xFF,0xFD,0xFF,0x0,0x0,0x0,0x0,0x0,0x0,0x0,0x0
        FD FF 00 00 00 00
        00 00 00 00
   3CE0 FF FF FF FF FF FF   978 .DB 0xFF,0xFF,0xFF,0xFF,0xFF,0xFF,0xFF,0xFF,0x0,0x0,0x0,0x0,0x0,0x1,0x0,0x0
        FF FF 00 00 00 00
        00 01 00 00
   3CF0 FF FF FC FF FF FF   979 .DB 0xFF,0xFF,0xFC,0xFF,0xFF,0xFF,0xEF,0xFF,0x0,0x0,0x0,0x0,0x0,0x0,0x0,0x0
        EF FF 00 00 00 00
        00 00 00 00
   3D00 00 00 40 00 00 00   980 .DB 0x0,0x0,0x40,0x0,0x0,0x0,0x0,0x0,0xFF,0xFF,0xFF,0xFF,0x7F,0xFF,0xFF,0xFF
        00 00 FF FF FF FF
        7F FF FF FF
   3D10 00 00 00 00 00 00   981 .DB 0x0,0x0,0x0,0x0,0x0,0x0,0x0,0x0,0xFF,0xFF,0xFF,0xFF,0xFF,0xFF,0xFF,0xFF
        00 00 FF FF FF FF
        FF FF FF FF
   3D20 20 00 00 00 20 00   982 .DB 0x20,0x0,0x0,0x0,0x20,0x0,0x0,0x0,0xFF,0xFF,0xFF,0xFF,0xFF,0xFF,0xEF,0xFF
        00 00 FF FF FF FF
        FF FF EF FF
   3D30 00 00 00 00 00 00   983 .DB 0x0,0x0,0x0,0x0,0x0,0x0,0x0,0x0,0xFF,0xFF,0xFF,0xFF,0xFF,0xFF,0xDF,0xFF
        00 00 FF FF FF FF
        FF FF DF FF
   3D40 00 00 00 00 00 00   984 .DB 0x0,0x0,0x0,0x0,0x0,0x0,0x0,0x0,0xFF,0xFF,0xFF,0xFF,0xFF,0xEF,0xFF,0xFF
        00 00 FF FF FF FF
        FF EF FF FF
   3D50 00 00 00 00 00 10   985 .DB 0x0,0x0,0x0,0x0,0x0,0x10,0x0,0x0,0xFF,0xBF,0xFF,0xFF,0xFF,0xFF,0xFF,0xFF
        00 00 FF BF FF FF
        FF FF FF FF
   3D60 00 00 00 00 00 00   986 .DB 0x0,0x0,0x0,0x0,0x0,0x0,0x0,0x80,0xFF,0xFF,0xFF,0xFF,0xF7,0xFF,0xFF,0xFF
        00 80 FF FF FF FF
        F7 FF FF FF
   3D70 00 00 00 00 02 00   987 .DB 0x0,0x0,0x0,0x0,0x2,0x0,0x20,0x0,0xFF,0xFF,0xFF,0xFF,0xFF,0xFF,0xFD,0xFF
        20 00 FF FF FF FF
        FF FF FD FF
   3D80 00 80 00 00 20 00   988 .DB 0x0,0x80,0x0,0x0,0x20,0x0,0x0,0x10,0xFF,0xFF,0xFF,0xFF,0xFF,0xFF,0xFF,0xFF
        00 10 FF FF FF FF
        FF FF FF FF
   3D90 00 00 00 00 00 00   989 .DB 0x0,0x0,0x0,0x0,0x0,0x0,0x0,0x0,0xFF,0xFF,0xFF,0xFF,0xFF,0xFF,0xFF,0xEF
        00 00 FF FF FF FF
        FF FF FF EF
   3DA0 00 00 40 00 00 00   990 .DB 0x0,0x0,0x40,0x0,0x0,0x0,0x0,0x0,0xFF,0xFF,0xFF,0xFF,0xFF,0xFF,0xFB,0xFF
        00 00 FF FF FF FF
        FF FF FB FF
   3DB0 00 00 00 00 00 00   991 .DB 0x0,0x0,0x0,0x0,0x0,0x0,0x10,0x0,0xFF,0xFF,0xFF,0xBF,0xFF,0xFF,0xFF,0xFF
        10 00 FF FF FF BF
        FF FF FF FF
   3DC0 00 40 00 00 00 00   992 .DB 0x0,0x40,0x0,0x0,0x0,0x0,0x0,0x0,0xFF,0xFF,0xFF,0xFE,0x5F,0xFF,0xFF,0xFF
        00 00 FF FF FF FE
        5F FF FF FF
   3DD0 00 00 00 00 08 00   993 .DB 0x0,0x0,0x0,0x0,0x8,0x0,0x0,0x1,0xFF,0xFF,0xFF,0xFD,0xFF,0xFF,0xFF,0xFF
        00 01 FF FF FF FD
        FF FF FF FF
   3DE0 00 00 00 00 00 00   994 .DB 0x0,0x0,0x0,0x0,0x0,0x0,0x0,0x0,0xFF,0xFF,0xFF,0xFF,0xFF,0xFF,0xFF,0xFF
        00 00 FF FF FF FF
        FF FF FF FF
   3DF0 00 00 00 00 00 00   995 .DB 0x0,0x0,0x0,0x0,0x0,0x0,0x0,0x0,0xEF,0xFF,0xFF,0xFF,0xFF,0xFF,0xFF,0xFF
        00 00 EF FF FF FF
        FF FF FF FF
   3E00 FF FF FF FF FF FF   996 .DB 0xFF,0xFF,0xFF,0xFF,0xFF,0xFF,0xFF,0xFF,0x1,0x0,0x0,0x0,0x20,0x0,0x0,0x0
        FF FF 01 00 00 00
        20 00 00 00
   3E10 FF FF FF FF FF FF   997 .DB 0xFF,0xFF,0xFF,0xFF,0xFF,0xFF,0xFF,0xFF,0x0,0x0,0x0,0x0,0x0,0x0,0x0,0x0
        FF FF 00 00 00 00
        00 00 00 00
   3E20 FF FF FF FF FF FF   998 .DB 0xFF,0xFF,0xFF,0xFF,0xFF,0xFF,0xFF,0xFF,0x0,0x0,0x0,0x8,0x0,0x0,0x0,0x0
        FF FF 00 00 00 08
        00 00 00 00
   3E30 FD FF FF FF FF FF   999 .DB 0xFD,0xFF,0xFF,0xFF,0xFF,0xFF,0xFF,0xFF,0x1,0x4,0x0,0x0,0x0,0x0,0x0,0x0
        FF FF 01 04 00 00
        00 00 00 00
   3E40 7F FF FE FF FF FF  1000 .DB 0x7F,0xFF,0xFE,0xFF,0xFF,0xFF,0xFF,0xFF,0x0,0x0,0x0,0x0,0x0,0x0,0x0,0x1
        FF FF 00 00 00 00
        00 00 00 01
   3E50 FF FF FF FE EF FF  1001 .DB 0xFF,0xFF,0xFF,0xFE,0xEF,0xFF,0xFF,0xFF,0x40,0x0,0x0,0x0,0x0,0x0,0x0,0x0
        FF FF 40 00 00 00
        00 00 00 00
   3E60 FF FF DF FF FF FF  1002 .DB 0xFF,0xFF,0xDF,0xFF,0xFF,0xFF,0xFF,0xFF,0x0,0x0,0x0,0x8,0x0,0x0,0x0,0x0
        FF FF 00 00 00 08
        00 00 00 00
   3E70 FF FF FF FF FF FD  1003 .DB 0xFF,0xFF,0xFF,0xFF,0xFF,0xFD,0xFF,0xFF,0x40,0x0,0x20,0x0,0x0,0x0,0x0,0x0
        FF FF 40 00 20 00
        00 00 00 00
   3E80 FF FF FF FF FF FF  1004 .DB 0xFF,0xFF,0xFF,0xFF,0xFF,0xFF,0xFF,0xFF,0x0,0x0,0x0,0x0,0x0,0x0,0x0,0x0
        FF FF 00 00 00 00
        00 00 00 00
   3E90 FF FF FF FF FF FF  1005 .DB 0xFF,0xFF,0xFF,0xFF,0xFF,0xFF,0xFF,0xFF,0x8,0x0,0x0,0x0,0x20,0x1,0x0,0x0
        FF FF 08 00 00 00
        20 01 00 00
   3EA0 DF FF FF FF FF FF  1006 .DB 0xDF,0xFF,0xFF,0xFF,0xFF,0xFF,0xFF,0xF7,0x0,0x0,0x0,0x0,0x0,0x0,0x0,0x0
        FF F7 00 00 00 00
        00 00 00 00
   3EB0 FF FF FF FF FF FF  1007 .DB 0xFF,0xFF,0xFF,0xFF,0xFF,0xFF,0xFD,0xFF,0x0,0x80,0x0,0x10,0x0,0x0,0x0,0x0
        FD FF 00 80 00 10
        00 00 00 00
   3EC0 FF FF BF FE FF FF  1008 .DB 0xFF,0xFF,0xBF,0xFE,0xFF,0xFF,0xFF,0xEF,0x0,0x0,0x0,0x0,0x0,0x0,0x2,0x0
        FF EF 00 00 00 00
        00 00 02 00
   3ED0 FF FF FF FF FF BF  1009 .DB 0xFF,0xFF,0xFF,0xFF,0xFF,0xBF,0xBF,0xFF,0x4,0x0,0x0,0x0,0x0,0x0,0x4,0x4
        BF FF 04 00 00 00
        00 00 04 04
   3EE0 FF 7F FF FF FF FF  1010 .DB 0xFF,0x7F,0xFF,0xFF,0xFF,0xFF,0xFF,0xFF,0x0,0x0,0x0,0x10,0x0,0x40,0x0,0x0
        FF FF 00 00 00 10
        00 40 00 00
   3EF0 FF DF FF FF BF FF  1011 .DB 0xFF,0xDF,0xFF,0xFF,0xBF,0xFF,0xFF,0xFF,0x0,0x0,0x0,0x0,0x0,0x0,0x0,0x0
        FF FF 00 00 00 00
        00 00 00 00
   3F00 00 00 00 00 00 00  1012 .DB 0x0,0x0,0x0,0x0,0x0,0x0,0x0,0x0,0xFF,0xFF,0xFF,0xFF,0xFF,0xFF,0xFF,0xFF
        00 00 FF FF FF FF
        FF FF FF FF
   3F10 08 00 00 20 00 00  1013 .DB 0x8,0x0,0x0,0x20,0x0,0x0,0x0,0x0,0xFF,0xFF,0xFF,0xFF,0xFF,0xFF,0xBF,0xFF
        00 00 FF FF FF FF
        FF FF BF FF
   3F20 00 00 00 00 00 00  1014 .DB 0x0,0x0,0x0,0x0,0x0,0x0,0x0,0x0,0xFF,0xFF,0xFF,0xFF,0x7F,0xFF,0xFF,0xFF
        00 00 FF FF FF FF
        7F FF FF FF
   3F30 00 00 00 00 00 00  1015 .DB 0x0,0x0,0x0,0x0,0x0,0x0,0x20,0x0,0xFF,0xFF,0xFF,0xFF,0xFF,0xFB,0xFF,0xFF
        20 00 FF FF FF FF
        FF FB FF FF
   3F40 00 00 04 00 00 80  1016 .DB 0x0,0x0,0x4,0x0,0x0,0x80,0x0,0x0,0xFF,0xFF,0xFF,0xFF,0xFF,0xFF,0xFF,0xFF
        00 00 FF FF FF FF
        FF FF FF FF
   3F50 00 00 00 00 00 00  1017 .DB 0x0,0x0,0x0,0x0,0x0,0x0,0x21,0x0,0xFF,0x7F,0xFF,0xFF,0xFF,0xFF,0xFF,0xFF
        21 00 FF 7F FF FF
        FF FF FF FF
   3F60 00 08 00 00 00 04  1018 .DB 0x0,0x8,0x0,0x0,0x0,0x4,0x0,0x0,0xFF,0xFF,0xFF,0xFF,0xFF,0xFF,0xFF,0xFF
        00 00 FF FF FF FF
        FF FF FF FF
   3F70 00 00 08 00 00 00  1019 .DB 0x0,0x0,0x8,0x0,0x0,0x0,0x0,0x0,0xFF,0xFF,0xFF,0xFF,0xFF,0xFF,0xFF,0xFF
        00 00 FF FF FF FF
        FF FF FF FF
   3F80 00 00 00 00 10 40  1020 .DB 0x0,0x0,0x0,0x0,0x10,0x40,0x0,0x0,0xFF,0xFF,0xFF,0xFE,0xFF,0xFF,0xFF,0xFF
        00 00 FF FF FF FE
        FF FF FF FF
   3F90 00 00 00 00 00 00  1021 .DB 0x0,0x0,0x0,0x0,0x0,0x0,0x0,0x0,0xFF,0xFF,0xFF,0xFF,0xFF,0xFF,0xFF,0xFF
        00 00 FF FF FF FF
        FF FF FF FF
   3FA0 00 00 00 00 00 00  1022 .DB 0x0,0x0,0x0,0x0,0x0,0x0,0x0,0x0,0xFF,0xFF,0xFE,0xFF,0xFB,0xFF,0xFF,0xFF
        00 00 FF FF FE FF
        FB FF FF FF
   3FB0 00 00 00 00 00 00  1023 .DB 0x0,0x0,0x0,0x0,0x0,0x0,0x0,0x0,0xFF,0xDF,0xFF,0xFF,0xFF,0xFF,0xFF,0xFF
        00 00 FF DF FF FF
        FF FF FF FF
   3FC0 00 00 00 00 00 00  1024 .DB 0x0,0x0,0x0,0x0,0x0,0x0,0x0,0x0,0xFF,0xFE,0xFF,0xFF,0xFF,0xFD,0xFF,0xFF
        00 00 FF FE FF FF
        FF FD FF FF
   3FD0 00 00 00 00 00 20  1025 .DB 0x0,0x0,0x0,0x0,0x0,0x20,0x0,0x0,0xFF,0xFF,0xFF,0xFF,0xFF,0xFF,0xFF,0xFF
        00 00 FF FF FF FF
        FF FF FF FF
   3FE0 00 00 00 00 00 00  1026 .DB 0x0,0x0,0x0,0x0,0x0,0x0,0x0,0x0,0xFF,0xFF,0xFF,0xFF,0xFF,0xBF,0xFF,0xFF
        00 00 FF FF FF FF
        FF BF FF FF
   3FF0 00 00 00 00 00 01  1027 .DB 0x0,0x0,0x0,0x0,0x0,0x1,0x0,0x0,0xFF,0xFF,0xFF,0xFF,0xFF,0xFF,0xFF,0xFF
        00 00 FF FF FF FF
        FF FF FF FF
